
     RDKit          3D

 67 70  0  0  0  0  0  0  0  0999 V2000
  135.7189  126.0167  141.0466 C   0  0  0  0  0  0  0  0  0  0  0  0
  135.1434  124.7527  141.6818 C   0  0  0  0  0  0  0  0  0  0  0  0
  135.8916  123.5760  141.1093 C   0  0  2  0  0  0  0  0  0  0  0  0
  136.9327  124.0601  140.1473 C   0  0  0  0  0  0  0  0  0  0  0  0
  134.9798  122.5173  140.5775 C   0  0  2  0  0  0  0  0  0  0  0  0
  135.7090  121.6291  139.6660 N   0  0  0  0  0  0  0  0  0  0  0  0
  135.9666  120.2721  139.9601 C   0  0  0  0  0  0  0  0  0  0  0  0
  135.5088  119.8887  141.1021 O   0  0  0  0  0  0  0  0  0  0  0  0
  136.6561  119.3586  139.1280 N   0  0  0  0  0  0  0  0  0  0  0  0
  136.2947  117.9556  139.1915 C   0  0  0  0  0  0  0  0  0  0  0  0
  137.4428  117.2008  138.5244 C   0  0  0  0  0  0  0  0  0  0  0  0
  137.4215  117.5854  137.0828 C   0  0  0  0  0  0  0  0  0  0  0  0
  137.7962  119.0412  136.9720 C   0  0  0  0  0  0  0  0  0  0  0  0
  137.6702  119.8216  138.2482 C   0  0  0  0  0  0  0  0  0  0  0  0
  136.1974  117.2986  136.3390 C   0  0  0  0  0  0  0  0  0  0  0  0
  134.9435  117.4010  136.4431 O   0  0  0  0  0  0  0  0  0  0  0  0
  136.9757  116.7773  135.2741 N   0  0  0  0  0  0  0  0  0  0  0  0
  136.7292  116.4371  133.9039 C   0  0  0  0  0  0  0  0  0  0  0  0
  135.8114  115.4761  133.5652 C   0  0  0  0  0  0  0  0  0  0  0  0
  135.5573  115.1341  132.2468 C   0  0  0  0  0  0  0  0  0  0  0  0
  136.2563  115.7883  131.2555 C   0  0  0  0  0  0  0  0  0  0  0  0
  137.1862  116.7618  131.6004 C   0  0  0  0  0  0  0  0  0  0  0  0
  137.8689  117.3989  130.6243 F   0  0  0  0  0  0  0  0  0  0  0  0
  137.4252  117.0881  132.9162 C   0  0  0  0  0  0  0  0  0  0  0  0
  138.1390  116.7239  136.1212 C   0  0  2  0  0  0  0  0  0  0  0  0
  138.5678  115.3955  136.5430 C   0  0  0  0  0  0  0  0  0  0  0  0
  138.3339  114.2584  135.8062 C   0  0  0  0  0  0  0  0  0  0  0  0
  138.7708  113.0392  136.2756 C   0  0  0  0  0  0  0  0  0  0  0  0
  139.4406  112.9411  137.4765 C   0  0  0  0  0  0  0  0  0  0  0  0
  139.9991  111.3933  138.0788 Cl  0  0  0  0  0  0  0  0  0  0  0  0
  139.6905  114.0778  138.2428 C   0  0  0  0  0  0  0  0  0  0  0  0
  139.2405  115.2567  137.7375 C   0  0  0  0  0  0  0  0  0  0  0  0
  133.7742  122.9995  139.9078 C   0  0  0  0  0  0  0  0  0  0  0  0
  132.5985  122.7097  140.2406 O   0  0  0  0  0  0  0  0  0  0  0  0
  133.9141  123.8556  138.8027 O   0  0  0  0  0  0  0  0  0  0  0  0
  133.0087  124.9488  138.6513 C   0  0  0  0  0  0  0  0  0  0  0  0
  136.7862  126.1478  141.3209 H   0  0  0  0  0  0  0  0  0  0  0  0
  135.6220  125.9743  139.9353 H   0  0  0  0  0  0  0  0  0  0  0  0
  135.1184  126.8898  141.3930 H   0  0  0  0  0  0  0  0  0  0  0  0
  134.0649  124.7518  141.3431 H   0  0  0  0  0  0  0  0  0  0  0  0
  135.2188  124.8244  142.7764 H   0  0  0  0  0  0  0  0  0  0  0  0
  136.4191  123.1085  141.9958 H   0  0  0  0  0  0  0  0  0  0  0  0
  137.4448  123.1872  139.6436 H   0  0  0  0  0  0  0  0  0  0  0  0
  137.7089  124.6503  140.7105 H   0  0  0  0  0  0  0  0  0  0  0  0
  136.4908  124.6993  139.3567 H   0  0  0  0  0  0  0  0  0  0  0  0
  134.6821  121.8899  141.4690 H   0  0  0  0  0  0  0  0  0  0  0  0
  136.0515  122.0259  138.7644 H   0  0  0  0  0  0  0  0  0  0  0  0
  135.3311  117.8013  138.6953 H   0  0  0  0  0  0  0  0  0  0  0  0
  136.1638  117.6114  140.2424 H   0  0  0  0  0  0  0  0  0  0  0  0
  138.3669  117.6282  138.9734 H   0  0  0  0  0  0  0  0  0  0  0  0
  137.4331  116.1416  138.7554 H   0  0  0  0  0  0  0  0  0  0  0  0
  138.8866  119.0507  136.6972 H   0  0  0  0  0  0  0  0  0  0  0  0
  137.2683  119.5521  136.1446 H   0  0  0  0  0  0  0  0  0  0  0  0
  138.6349  119.8768  138.8125 H   0  0  0  0  0  0  0  0  0  0  0  0
  137.4403  120.8667  137.9489 H   0  0  0  0  0  0  0  0  0  0  0  0
  135.2436  114.9408  134.3082 H   0  0  0  0  0  0  0  0  0  0  0  0
  134.8309  114.3720  131.9557 H   0  0  0  0  0  0  0  0  0  0  0  0
  136.0810  115.5447  130.2171 H   0  0  0  0  0  0  0  0  0  0  0  0
  138.1563  117.8490  133.1273 H   0  0  0  0  0  0  0  0  0  0  0  0
  138.9654  117.2910  135.6228 H   0  0  0  0  0  0  0  0  0  0  0  0
  137.8076  114.2908  134.8479 H   0  0  0  0  0  0  0  0  0  0  0  0
  138.5984  112.1293  135.7125 H   0  0  0  0  0  0  0  0  0  0  0  0
  140.2217  113.9777  139.1891 H   0  0  0  0  0  0  0  0  0  0  0  0
  139.4403  116.1529  138.3467 H   0  0  0  0  0  0  0  0  0  0  0  0
  132.1720  124.6602  138.0075 H   0  0  0  0  0  0  0  0  0  0  0  0
  132.7218  125.3654  139.6310 H   0  0  0  0  0  0  0  0  0  0  0  0
  133.5955  125.7445  138.1069 H   0  0  0  0  0  0  0  0  0  0  0  0
  1  2  1  0
  2  3  1  0
  3  4  1  0
  3  5  1  0
  5  6  1  0
  6  7  1  0
  7  8  2  0
  7  9  1  0
  9 10  1  0
 10 11  1  0
 11 12  1  0
 12 13  1  0
 13 14  1  0
 12 15  1  0
 15 16  2  0
 15 17  1  0
 17 18  1  0
 18 19  2  0
 19 20  1  0
 20 21  2  0
 21 22  1  0
 22 23  1  0
 22 24  2  0
 17 25  1  0
 25 26  1  0
 26 27  2  0
 27 28  1  0
 28 29  2  0
 29 30  1  0
 29 31  1  0
 31 32  2  0
  5 33  1  0
 33 34  2  0
 33 35  1  0
 35 36  1  0
 14  9  1  0
 24 18  1  0
 32 26  1  0
 25 12  1  0
  1 37  1  0
  1 38  1  0
  1 39  1  0
  2 40  1  0
  2 41  1  0
  3 42  1  1
  4 43  1  0
  4 44  1  0
  4 45  1  0
  5 46  1  1
  6 47  1  0
 10 48  1  0
 10 49  1  0
 11 50  1  0
 11 51  1  0
 13 52  1  0
 13 53  1  0
 14 54  1  0
 14 55  1  0
 19 56  1  0
 20 57  1  0
 21 58  1  0
 24 59  1  0
 25 60  1  6
 27 61  1  0
 28 62  1  0
 31 63  1  0
 32 64  1  0
 36 65  1  0
 36 66  1  0
 36 67  1  0
M  END
>  <docking_score>  (1) 
-7.7599999999999998

$$$$

     RDKit          3D

 67 70  0  0  0  0  0  0  0  0999 V2000
  136.3551  124.0321  141.2194 C   0  0  0  0  0  0  0  0  0  0  0  0
  135.6309  123.9909  139.8754 C   0  0  0  0  0  0  0  0  0  0  0  0
  134.2271  123.5048  140.1311 C   0  0  2  0  0  0  0  0  0  0  0  0
  134.1634  122.0214  139.9338 C   0  0  0  0  0  0  0  0  0  0  0  0
  133.2002  124.2895  139.3795 C   0  0  2  0  0  0  0  0  0  0  0  0
  133.5968  125.6994  139.2982 N   0  0  0  0  0  0  0  0  0  0  0  0
  133.7176  126.3929  138.0741 C   0  0  0  0  0  0  0  0  0  0  0  0
  133.4539  125.6737  137.0377 O   0  0  0  0  0  0  0  0  0  0  0  0
  134.0883  127.7499  137.9216 N   0  0  0  0  0  0  0  0  0  0  0  0
  133.6157  128.7108  138.8997 C   0  0  0  0  0  0  0  0  0  0  0  0
  133.8183  130.0844  138.2632 C   0  0  0  0  0  0  0  0  0  0  0  0
  135.2923  130.2825  138.1434 C   0  0  0  0  0  0  0  0  0  0  0  0
  135.8246  129.3016  137.1301 C   0  0  0  0  0  0  0  0  0  0  0  0
  134.9134  128.1455  136.8355 C   0  0  0  0  0  0  0  0  0  0  0  0
  136.0693  130.2364  139.3796 C   0  0  0  0  0  0  0  0  0  0  0  0
  136.1899  129.5520  140.4334 O   0  0  0  0  0  0  0  0  0  0  0  0
  136.7743  131.3972  138.9708 N   0  0  0  0  0  0  0  0  0  0  0  0
  137.9739  132.0604  139.3891 C   0  0  0  0  0  0  0  0  0  0  0  0
  137.9691  132.9387  140.4423 C   0  0  0  0  0  0  0  0  0  0  0  0
  139.1182  133.5884  140.8631 C   0  0  0  0  0  0  0  0  0  0  0  0
  140.2953  133.3344  140.1929 C   0  0  0  0  0  0  0  0  0  0  0  0
  140.2984  132.4442  139.1258 C   0  0  0  0  0  0  0  0  0  0  0  0
  141.4552  132.2001  138.4723 F   0  0  0  0  0  0  0  0  0  0  0  0
  139.1465  131.8081  138.7219 C   0  0  0  0  0  0  0  0  0  0  0  0
  135.7970  131.6565  137.9455 C   0  0  2  0  0  0  0  0  0  0  0  0
  134.8996  132.7815  138.1813 C   0  0  0  0  0  0  0  0  0  0  0  0
  134.5140  133.1882  139.4368 C   0  0  0  0  0  0  0  0  0  0  0  0
  133.6610  134.2610  139.5747 C   0  0  0  0  0  0  0  0  0  0  0  0
  133.1861  134.9352  138.4700 C   0  0  0  0  0  0  0  0  0  0  0  0
  132.1011  136.3007  138.6389 Cl  0  0  0  0  0  0  0  0  0  0  0  0
  133.5611  134.5436  137.1864 C   0  0  0  0  0  0  0  0  0  0  0  0
  134.4041  133.4806  137.1022 C   0  0  0  0  0  0  0  0  0  0  0  0
  131.8374  124.2085  139.8996 C   0  0  0  0  0  0  0  0  0  0  0  0
  130.7949  124.3972  139.2253 O   0  0  0  0  0  0  0  0  0  0  0  0
  131.6517  123.8964  141.2568 O   0  0  0  0  0  0  0  0  0  0  0  0
  131.1286  124.8935  142.1340 C   0  0  0  0  0  0  0  0  0  0  0  0
  137.3128  124.5868  141.1370 H   0  0  0  0  0  0  0  0  0  0  0  0
  135.7118  124.5122  141.9951 H   0  0  0  0  0  0  0  0  0  0  0  0
  136.5400  122.9843  141.5522 H   0  0  0  0  0  0  0  0  0  0  0  0
  136.2204  123.2333  139.2784 H   0  0  0  0  0  0  0  0  0  0  0  0
  135.6677  124.9852  139.4074 H   0  0  0  0  0  0  0  0  0  0  0  0
  134.0390  123.7245  141.2262 H   0  0  0  0  0  0  0  0  0  0  0  0
  135.0559  121.5183  140.4115 H   0  0  0  0  0  0  0  0  0  0  0  0
  134.1767  121.7954  138.8307 H   0  0  0  0  0  0  0  0  0  0  0  0
  133.2468  121.5897  140.3838 H   0  0  0  0  0  0  0  0  0  0  0  0
  133.2177  123.8887  138.3231 H   0  0  0  0  0  0  0  0  0  0  0  0
  133.7996  126.2037  140.1884 H   0  0  0  0  0  0  0  0  0  0  0  0
  134.1678  128.5837  139.8363 H   0  0  0  0  0  0  0  0  0  0  0  0
  132.5414  128.5527  139.1461 H   0  0  0  0  0  0  0  0  0  0  0  0
  133.4066  129.9877  137.2338 H   0  0  0  0  0  0  0  0  0  0  0  0
  133.2524  130.8617  138.7642 H   0  0  0  0  0  0  0  0  0  0  0  0
  135.9241  129.8829  136.1727 H   0  0  0  0  0  0  0  0  0  0  0  0
  136.8426  128.9467  137.3792 H   0  0  0  0  0  0  0  0  0  0  0  0
  134.2648  128.3294  135.9425 H   0  0  0  0  0  0  0  0  0  0  0  0
  135.5733  127.2969  136.5545 H   0  0  0  0  0  0  0  0  0  0  0  0
  137.0714  133.1657  140.9932 H   0  0  0  0  0  0  0  0  0  0  0  0
  139.1361  134.2913  141.6991 H   0  0  0  0  0  0  0  0  0  0  0  0
  141.2092  133.8251  140.4969 H   0  0  0  0  0  0  0  0  0  0  0  0
  139.2051  131.1288  137.8893 H   0  0  0  0  0  0  0  0  0  0  0  0
  136.3288  131.7448  136.9646 H   0  0  0  0  0  0  0  0  0  0  0  0
  134.8678  132.6829  140.3402 H   0  0  0  0  0  0  0  0  0  0  0  0
  133.3434  134.6001  140.5540 H   0  0  0  0  0  0  0  0  0  0  0  0
  133.1739  135.0904  136.3268 H   0  0  0  0  0  0  0  0  0  0  0  0
  134.6979  133.1744  136.0853 H   0  0  0  0  0  0  0  0  0  0  0  0
  130.7710  125.7532  141.5588 H   0  0  0  0  0  0  0  0  0  0  0  0
  130.3937  124.4614  142.8332 H   0  0  0  0  0  0  0  0  0  0  0  0
  132.0111  125.2399  142.7464 H   0  0  0  0  0  0  0  0  0  0  0  0
  1  2  1  0
  2  3  1  0
  3  4  1  0
  3  5  1  0
  5  6  1  0
  6  7  1  0
  7  8  2  0
  7  9  1  0
  9 10  1  0
 10 11  1  0
 11 12  1  0
 12 13  1  0
 13 14  1  0
 12 15  1  0
 15 16  2  0
 15 17  1  0
 17 18  1  0
 18 19  2  0
 19 20  1  0
 20 21  2  0
 21 22  1  0
 22 23  1  0
 22 24  2  0
 17 25  1  0
 25 26  1  0
 26 27  2  0
 27 28  1  0
 28 29  2  0
 29 30  1  0
 29 31  1  0
 31 32  2  0
  5 33  1  0
 33 34  2  0
 33 35  1  0
 35 36  1  0
 14  9  1  0
 24 18  1  0
 32 26  1  0
 25 12  1  0
  1 37  1  0
  1 38  1  0
  1 39  1  0
  2 40  1  0
  2 41  1  0
  3 42  1  1
  4 43  1  0
  4 44  1  0
  4 45  1  0
  5 46  1  6
  6 47  1  0
 10 48  1  0
 10 49  1  0
 11 50  1  0
 11 51  1  0
 13 52  1  0
 13 53  1  0
 14 54  1  0
 14 55  1  0
 19 56  1  0
 20 57  1  0
 21 58  1  0
 24 59  1  0
 25 60  1  6
 27 61  1  0
 28 62  1  0
 31 63  1  0
 32 64  1  0
 36 65  1  0
 36 66  1  0
 36 67  1  0
M  END
>  <docking_score>  (2) 
-7.359

$$$$

     RDKit          3D

 67 70  0  0  0  0  0  0  0  0999 V2000
  135.8554  126.7278  142.7584 C   0  0  0  0  0  0  0  0  0  0  0  0
  136.3746  128.1553  142.5998 C   0  0  0  0  0  0  0  0  0  0  0  0
  136.7573  128.6538  143.9699 C   0  0  2  0  0  0  0  0  0  0  0  0
  135.9067  129.8318  144.3337 C   0  0  0  0  0  0  0  0  0  0  0  0
  138.2301  128.8659  144.1148 C   0  0  2  0  0  0  0  0  0  0  0  0
  138.8170  129.2540  142.8277 N   0  0  0  0  0  0  0  0  0  0  0  0
  139.1347  130.5907  142.5016 C   0  0  0  0  0  0  0  0  0  0  0  0
  138.8570  131.4363  143.4335 O   0  0  0  0  0  0  0  0  0  0  0  0
  139.7063  131.0353  141.2859 N   0  0  0  0  0  0  0  0  0  0  0  0
  138.8855  131.8146  140.3791 C   0  0  0  0  0  0  0  0  0  0  0  0
  139.6112  131.7873  139.0354 C   0  0  0  0  0  0  0  0  0  0  0  0
  140.8819  132.5461  139.2247 C   0  0  0  0  0  0  0  0  0  0  0  0
  141.7682  131.7659  140.1617 C   0  0  0  0  0  0  0  0  0  0  0  0
  141.0580  130.7260  140.9789 C   0  0  0  0  0  0  0  0  0  0  0  0
  140.7645  133.9392  139.6486 C   0  0  0  0  0  0  0  0  0  0  0  0
  140.1446  134.6591  140.4798 O   0  0  0  0  0  0  0  0  0  0  0  0
  141.7262  134.3088  138.6740 N   0  0  0  0  0  0  0  0  0  0  0  0
  142.5251  135.4714  138.4211 C   0  0  0  0  0  0  0  0  0  0  0  0
  143.0377  135.7231  137.1743 C   0  0  0  0  0  0  0  0  0  0  0  0
  143.8106  136.8420  136.9091 C   0  0  0  0  0  0  0  0  0  0  0  0
  144.0641  137.7206  137.9402 C   0  0  0  0  0  0  0  0  0  0  0  0
  143.5442  137.4640  139.2031 C   0  0  0  0  0  0  0  0  0  0  0  0
  143.7970  138.3284  140.2100 F   0  0  0  0  0  0  0  0  0  0  0  0
  142.7783  136.3467  139.4476 C   0  0  0  0  0  0  0  0  0  0  0  0
  141.5892  133.0320  138.0224 C   0  0  2  0  0  0  0  0  0  0  0  0
  140.8909  133.0340  136.7423 C   0  0  0  0  0  0  0  0  0  0  0  0
  140.9453  131.9875  135.8521 C   0  0  0  0  0  0  0  0  0  0  0  0
  140.2572  132.0680  134.6615 C   0  0  0  0  0  0  0  0  0  0  0  0
  139.5130  133.1851  134.3473 C   0  0  0  0  0  0  0  0  0  0  0  0
  138.6354  133.2932  132.8345 Cl  0  0  0  0  0  0  0  0  0  0  0  0
  139.4412  134.2596  135.2315 C   0  0  0  0  0  0  0  0  0  0  0  0
  140.1366  134.1328  136.3925 C   0  0  0  0  0  0  0  0  0  0  0  0
  138.9809  127.7364  144.6580 C   0  0  0  0  0  0  0  0  0  0  0  0
  139.4256  126.7743  143.9845 O   0  0  0  0  0  0  0  0  0  0  0  0
  139.2390  127.7003  146.0386 O   0  0  0  0  0  0  0  0  0  0  0  0
  138.8968  128.8313  146.8394 C   0  0  0  0  0  0  0  0  0  0  0  0
  134.9225  126.5780  142.1762 H   0  0  0  0  0  0  0  0  0  0  0  0
  136.6259  125.9926  142.4237 H   0  0  0  0  0  0  0  0  0  0  0  0
  135.6724  126.5378  143.8416 H   0  0  0  0  0  0  0  0  0  0  0  0
  135.4821  128.7201  142.1970 H   0  0  0  0  0  0  0  0  0  0  0  0
  137.2100  128.1652  141.8851 H   0  0  0  0  0  0  0  0  0  0  0  0
  136.5004  127.8020  144.6708 H   0  0  0  0  0  0  0  0  0  0  0  0
  134.8218  129.6290  144.0894 H   0  0  0  0  0  0  0  0  0  0  0  0
  136.2432  130.7270  143.7391 H   0  0  0  0  0  0  0  0  0  0  0  0
  135.9753  130.0652  145.4152 H   0  0  0  0  0  0  0  0  0  0  0  0
  138.3479  129.7541  144.8033 H   0  0  0  0  0  0  0  0  0  0  0  0
  139.0018  128.5038  142.1271 H   0  0  0  0  0  0  0  0  0  0  0  0
  138.7547  132.8255  140.7783 H   0  0  0  0  0  0  0  0  0  0  0  0
  137.8636  131.3844  140.2762 H   0  0  0  0  0  0  0  0  0  0  0  0
  139.8776  130.7189  138.8743 H   0  0  0  0  0  0  0  0  0  0  0  0
  138.9723  132.0871  138.2123 H   0  0  0  0  0  0  0  0  0  0  0  0
  142.4922  131.2146  139.5011 H   0  0  0  0  0  0  0  0  0  0  0  0
  142.3824  132.4218  140.8073 H   0  0  0  0  0  0  0  0  0  0  0  0
  141.0940  129.7127  140.5057 H   0  0  0  0  0  0  0  0  0  0  0  0
  141.6320  130.6331  141.9256 H   0  0  0  0  0  0  0  0  0  0  0  0
  142.8638  135.0627  136.3409 H   0  0  0  0  0  0  0  0  0  0  0  0
  144.2282  137.0609  135.9238 H   0  0  0  0  0  0  0  0  0  0  0  0
  144.6635  138.6030  137.7658 H   0  0  0  0  0  0  0  0  0  0  0  0
  142.4010  136.1961  140.4442 H   0  0  0  0  0  0  0  0  0  0  0  0
  142.6031  132.5644  137.9444 H   0  0  0  0  0  0  0  0  0  0  0  0
  141.5223  131.0822  136.0616 H   0  0  0  0  0  0  0  0  0  0  0  0
  140.2846  131.2558  133.9443 H   0  0  0  0  0  0  0  0  0  0  0  0
  138.8472  135.1331  134.9633 H   0  0  0  0  0  0  0  0  0  0  0  0
  140.0770  134.9849  137.0887 H   0  0  0  0  0  0  0  0  0  0  0  0
  138.5800  128.5071  147.8357 H   0  0  0  0  0  0  0  0  0  0  0  0
  139.7020  129.5844  146.8277 H   0  0  0  0  0  0  0  0  0  0  0  0
  137.9995  129.2912  146.3323 H   0  0  0  0  0  0  0  0  0  0  0  0
  1  2  1  0
  2  3  1  0
  3  4  1  0
  3  5  1  0
  5  6  1  0
  6  7  1  0
  7  8  2  0
  7  9  1  0
  9 10  1  0
 10 11  1  0
 11 12  1  0
 12 13  1  0
 13 14  1  0
 12 15  1  0
 15 16  2  0
 15 17  1  0
 17 18  1  0
 18 19  2  0
 19 20  1  0
 20 21  2  0
 21 22  1  0
 22 23  1  0
 22 24  2  0
 17 25  1  0
 25 26  1  0
 26 27  2  0
 27 28  1  0
 28 29  2  0
 29 30  1  0
 29 31  1  0
 31 32  2  0
  5 33  1  0
 33 34  2  0
 33 35  1  0
 35 36  1  0
 14  9  1  0
 24 18  1  0
 32 26  1  0
 25 12  1  0
  1 37  1  0
  1 38  1  0
  1 39  1  0
  2 40  1  0
  2 41  1  0
  3 42  1  1
  4 43  1  0
  4 44  1  0
  4 45  1  0
  5 46  1  1
  6 47  1  0
 10 48  1  0
 10 49  1  0
 11 50  1  0
 11 51  1  0
 13 52  1  0
 13 53  1  0
 14 54  1  0
 14 55  1  0
 19 56  1  0
 20 57  1  0
 21 58  1  0
 24 59  1  0
 25 60  1  6
 27 61  1  0
 28 62  1  0
 31 63  1  0
 32 64  1  0
 36 65  1  0
 36 66  1  0
 36 67  1  0
M  END
>  <docking_score>  (3) 
-7.0650000000000004

$$$$
