
     RDKit          3D

 62 64  0  0  0  0  0  0  0  0999 V2000
  130.4573  129.5496  136.5911 C   0  0  0  0  0  0  0  0  0  0  0  0
  131.7013  130.3715  136.4989 C   0  0  0  0  0  0  0  0  0  0  0  0
  131.5988  131.2631  135.2808 C   0  0  0  0  0  0  0  0  0  0  0  0
  132.8774  129.5950  136.3598 O   0  0  0  0  0  0  0  0  0  0  0  0
  132.8723  128.3035  135.8759 C   0  0  0  0  0  0  0  0  0  0  0  0
  132.3343  128.1671  134.7305 O   0  0  0  0  0  0  0  0  0  0  0  0
  133.4222  127.1185  136.5587 C   0  0  0  0  0  0  0  0  0  0  0  0
  133.3065  127.1432  137.9897 N   0  0  0  0  0  0  0  0  0  0  0  0
  132.2354  126.4783  138.6855 C   0  0  0  0  0  0  0  0  0  0  0  0
  132.2126  125.1254  138.9166 C   0  0  0  0  0  0  0  0  0  0  0  0
  131.1740  124.5202  139.5879 C   0  0  0  0  0  0  0  0  0  0  0  0
  130.1038  125.2501  140.0612 C   0  0  0  0  0  0  0  0  0  0  0  0
  130.1178  126.6098  139.8340 C   0  0  0  0  0  0  0  0  0  0  0  0
  128.7802  127.5531  140.4209 Cl  0  0  0  0  0  0  0  0  0  0  0  0
  131.1541  127.2168  139.1635 C   0  0  0  0  0  0  0  0  0  0  0  0
  134.4539  127.9973  138.9364 S   0  0  0  0  0  0  0  0  0  0  0  0
  135.6260  128.4527  138.0891 O   0  0  0  0  0  0  0  0  0  0  0  0
  133.8582  129.2782  139.4951 O   0  0  0  0  0  0  0  0  0  0  0  0
  135.0690  127.0934  140.2831 C   0  0  0  0  0  0  0  0  0  0  0  0
  134.9376  127.6182  141.5525 C   0  0  0  0  0  0  0  0  0  0  0  0
  135.4330  126.9027  142.6314 C   0  0  0  0  0  0  0  0  0  0  0  0
  136.0412  125.6902  142.4067 C   0  0  0  0  0  0  0  0  0  0  0  0
  136.1764  125.1544  141.1238 C   0  0  0  0  0  0  0  0  0  0  0  0
  136.8138  123.9042  141.0374 N   0  0  0  0  0  0  0  0  0  0  0  0
  136.2251  122.6660  140.7012 C   0  0  0  0  0  0  0  0  0  0  0  0
  135.0230  122.6077  140.4426 O   0  0  0  0  0  0  0  0  0  0  0  0
  137.0302  121.4004  140.6484 C   0  0  0  0  0  0  0  0  0  0  0  0
  136.0594  120.2450  140.6831 C   0  0  0  0  0  0  0  0  0  0  0  0
  136.0033  119.5377  139.3795 C   0  0  0  0  0  0  0  0  0  0  0  0
  136.6041  120.0848  138.2656 C   0  0  0  0  0  0  0  0  0  0  0  0
  136.5694  119.4481  137.0320 C   0  0  0  0  0  0  0  0  0  0  0  0
  135.9022  118.2421  136.9860 C   0  0  0  0  0  0  0  0  0  0  0  0
  135.2916  117.6694  138.0824 C   0  0  0  0  0  0  0  0  0  0  0  0
  135.3419  118.3312  139.3101 C   0  0  0  0  0  0  0  0  0  0  0  0
  135.6828  125.8731  140.0757 C   0  0  0  0  0  0  0  0  0  0  0  0
  130.7503  128.4790  136.6239 H   0  0  0  0  0  0  0  0  0  0  0  0
  129.8864  129.7272  137.5490 H   0  0  0  0  0  0  0  0  0  0  0  0
  129.7896  129.6634  135.7112 H   0  0  0  0  0  0  0  0  0  0  0  0
  131.7673  131.0057  137.4062 H   0  0  0  0  0  0  0  0  0  0  0  0
  130.6646  131.8512  135.3876 H   0  0  0  0  0  0  0  0  0  0  0  0
  131.5463  130.6975  134.3451 H   0  0  0  0  0  0  0  0  0  0  0  0
  132.4214  132.0084  135.2434 H   0  0  0  0  0  0  0  0  0  0  0  0
  132.9012  126.2245  136.1507 H   0  0  0  0  0  0  0  0  0  0  0  0
  134.4993  126.9620  136.2722 H   0  0  0  0  0  0  0  0  0  0  0  0
  133.0181  124.5113  138.5733 H   0  0  0  0  0  0  0  0  0  0  0  0
  131.1657  123.4324  139.7679 H   0  0  0  0  0  0  0  0  0  0  0  0
  129.2760  124.7766  140.5946 H   0  0  0  0  0  0  0  0  0  0  0  0
  131.1712  128.2933  138.9798 H   0  0  0  0  0  0  0  0  0  0  0  0
  134.4539  128.5722  141.6822 H   0  0  0  0  0  0  0  0  0  0  0  0
  135.3244  127.3239  143.6193 H   0  0  0  0  0  0  0  0  0  0  0  0
  136.4187  125.1548  143.2722 H   0  0  0  0  0  0  0  0  0  0  0  0
  137.8570  123.8353  141.2412 H   0  0  0  0  0  0  0  0  0  0  0  0
  137.6596  121.3795  139.7570 H   0  0  0  0  0  0  0  0  0  0  0  0
  137.6649  121.3958  141.5744 H   0  0  0  0  0  0  0  0  0  0  0  0
  135.0409  120.6794  140.8865 H   0  0  0  0  0  0  0  0  0  0  0  0
  136.3152  119.5574  141.5065 H   0  0  0  0  0  0  0  0  0  0  0  0
  137.1188  121.0382  138.3515 H   0  0  0  0  0  0  0  0  0  0  0  0
  137.0452  119.8835  136.1537 H   0  0  0  0  0  0  0  0  0  0  0  0
  135.8446  117.7034  136.0507 H   0  0  0  0  0  0  0  0  0  0  0  0
  134.7674  116.7209  138.0440 H   0  0  0  0  0  0  0  0  0  0  0  0
  134.8603  117.8778  140.1712 H   0  0  0  0  0  0  0  0  0  0  0  0
  135.7512  125.5196  139.0663 H   0  0  0  0  0  0  0  0  0  0  0  0
  1  2  1  0
  2  3  1  0
  2  4  1  0
  4  5  1  0
  5  6  2  0
  5  7  1  0
  7  8  1  0
  8  9  1  0
  9 10  2  0
 10 11  1  0
 11 12  2  0
 12 13  1  0
 13 14  1  0
 13 15  2  0
  8 16  1  0
 16 17  2  0
 16 18  2  0
 16 19  1  0
 19 20  2  0
 20 21  1  0
 21 22  2  0
 22 23  1  0
 23 24  1  0
 24 25  1  0
 25 26  2  0
 25 27  1  0
 27 28  1  0
 28 29  1  0
 29 30  2  0
 30 31  1  0
 31 32  2  0
 32 33  1  0
 33 34  2  0
 23 35  2  0
 15  9  1  0
 35 19  1  0
 34 29  1  0
  1 36  1  0
  1 37  1  0
  1 38  1  0
  2 39  1  0
  3 40  1  0
  3 41  1  0
  3 42  1  0
  7 43  1  0
  7 44  1  0
 10 45  1  0
 11 46  1  0
 12 47  1  0
 15 48  1  0
 20 49  1  0
 21 50  1  0
 22 51  1  0
 24 52  1  0
 27 53  1  0
 27 54  1  0
 28 55  1  0
 28 56  1  0
 30 57  1  0
 31 58  1  0
 32 59  1  0
 33 60  1  0
 34 61  1  0
 35 62  1  0
M  END
>  <docking_score>  (1) 
-7.4249999999999998

$$$$

     RDKit          3D

 62 64  0  0  0  0  0  0  0  0999 V2000
  131.6858  128.7358  134.6836 C   0  0  0  0  0  0  0  0  0  0  0  0
  132.6594  129.5555  135.4656 C   0  0  0  0  0  0  0  0  0  0  0  0
  133.9908  128.8370  135.4786 C   0  0  0  0  0  0  0  0  0  0  0  0
  132.2703  129.7545  136.8126 O   0  0  0  0  0  0  0  0  0  0  0  0
  132.5990  130.8852  137.5305 C   0  0  0  0  0  0  0  0  0  0  0  0
  133.0307  130.6613  138.7067 O   0  0  0  0  0  0  0  0  0  0  0  0
  132.4926  132.2766  137.0555 C   0  0  0  0  0  0  0  0  0  0  0  0
  131.9505  133.1978  138.0143 N   0  0  0  0  0  0  0  0  0  0  0  0
  130.5537  133.2091  138.3643 C   0  0  0  0  0  0  0  0  0  0  0  0
  129.5802  133.7487  137.5610 C   0  0  0  0  0  0  0  0  0  0  0  0
  128.2520  133.7413  137.9239 C   0  0  0  0  0  0  0  0  0  0  0  0
  127.8376  133.1881  139.1174 C   0  0  0  0  0  0  0  0  0  0  0  0
  128.8083  132.6435  139.9308 C   0  0  0  0  0  0  0  0  0  0  0  0
  128.3120  131.9393  141.4412 Cl  0  0  0  0  0  0  0  0  0  0  0  0
  130.1357  132.6498  139.5708 C   0  0  0  0  0  0  0  0  0  0  0  0
  132.9659  134.3504  138.7777 S   0  0  0  0  0  0  0  0  0  0  0  0
  133.9847  133.6695  139.6707 O   0  0  0  0  0  0  0  0  0  0  0  0
  133.7930  135.1129  137.7568 O   0  0  0  0  0  0  0  0  0  0  0  0
  132.1103  135.5284  139.7205 C   0  0  0  0  0  0  0  0  0  0  0  0
  131.5348  136.6052  139.0774 C   0  0  0  0  0  0  0  0  0  0  0  0
  130.8553  137.5526  139.8270 C   0  0  0  0  0  0  0  0  0  0  0  0
  130.7734  137.3931  141.1902 C   0  0  0  0  0  0  0  0  0  0  0  0
  131.3539  136.3048  141.8461 C   0  0  0  0  0  0  0  0  0  0  0  0
  131.1900  136.2620  143.2418 N   0  0  0  0  0  0  0  0  0  0  0  0
  130.2737  135.4737  143.9711 C   0  0  0  0  0  0  0  0  0  0  0  0
  129.5056  134.7172  143.3768 O   0  0  0  0  0  0  0  0  0  0  0  0
  130.2057  135.5296  145.4694 C   0  0  0  0  0  0  0  0  0  0  0  0
  130.2406  136.9845  145.8699 C   0  0  0  0  0  0  0  0  0  0  0  0
  128.9118  137.6272  145.7142 C   0  0  0  0  0  0  0  0  0  0  0  0
  127.8670  137.2722  146.5409 C   0  0  0  0  0  0  0  0  0  0  0  0
  126.6123  137.8548  146.4208 C   0  0  0  0  0  0  0  0  0  0  0  0
  126.4725  138.8051  145.4312 C   0  0  0  0  0  0  0  0  0  0  0  0
  127.4983  139.1814  144.5891 C   0  0  0  0  0  0  0  0  0  0  0  0
  128.7493  138.5794  144.7320 C   0  0  0  0  0  0  0  0  0  0  0  0
  132.0179  135.3839  141.0915 C   0  0  0  0  0  0  0  0  0  0  0  0
  132.0381  128.6885  133.6316 H   0  0  0  0  0  0  0  0  0  0  0  0
  131.6440  127.6610  135.0277 H   0  0  0  0  0  0  0  0  0  0  0  0
  130.6668  129.1760  134.6518 H   0  0  0  0  0  0  0  0  0  0  0  0
  132.7810  130.5323  134.9548 H   0  0  0  0  0  0  0  0  0  0  0  0
  133.9790  128.1489  136.3483 H   0  0  0  0  0  0  0  0  0  0  0  0
  134.8394  129.5195  135.5891 H   0  0  0  0  0  0  0  0  0  0  0  0
  134.1207  128.1907  134.5847 H   0  0  0  0  0  0  0  0  0  0  0  0
  133.5097  132.6042  136.7467 H   0  0  0  0  0  0  0  0  0  0  0  0
  131.8895  132.3248  136.1065 H   0  0  0  0  0  0  0  0  0  0  0  0
  129.8450  134.1891  136.6232 H   0  0  0  0  0  0  0  0  0  0  0  0
  127.4780  134.1779  137.2710 H   0  0  0  0  0  0  0  0  0  0  0  0
  126.7855  133.1788  139.4120 H   0  0  0  0  0  0  0  0  0  0  0  0
  130.9098  132.2205  140.2107 H   0  0  0  0  0  0  0  0  0  0  0  0
  131.6239  136.6902  138.0070 H   0  0  0  0  0  0  0  0  0  0  0  0
  130.4098  138.3903  139.3124 H   0  0  0  0  0  0  0  0  0  0  0  0
  130.2348  138.1522  141.7488 H   0  0  0  0  0  0  0  0  0  0  0  0
  131.8031  136.8773  143.8583 H   0  0  0  0  0  0  0  0  0  0  0  0
  129.3090  135.0259  145.8347 H   0  0  0  0  0  0  0  0  0  0  0  0
  131.1263  135.0069  145.8429 H   0  0  0  0  0  0  0  0  0  0  0  0
  130.9588  137.4989  145.1719 H   0  0  0  0  0  0  0  0  0  0  0  0
  130.6222  137.0870  146.8994 H   0  0  0  0  0  0  0  0  0  0  0  0
  128.0258  136.5178  147.3069 H   0  0  0  0  0  0  0  0  0  0  0  0
  125.7886  137.5717  147.0757 H   0  0  0  0  0  0  0  0  0  0  0  0
  125.5168  139.2908  145.2938 H   0  0  0  0  0  0  0  0  0  0  0  0
  127.3862  139.9289  143.8115 H   0  0  0  0  0  0  0  0  0  0  0  0
  129.5546  138.8778  144.0676 H   0  0  0  0  0  0  0  0  0  0  0  0
  132.4842  134.5243  141.5302 H   0  0  0  0  0  0  0  0  0  0  0  0
  1  2  1  0
  2  3  1  0
  2  4  1  0
  4  5  1  0
  5  6  2  0
  5  7  1  0
  7  8  1  0
  8  9  1  0
  9 10  2  0
 10 11  1  0
 11 12  2  0
 12 13  1  0
 13 14  1  0
 13 15  2  0
  8 16  1  0
 16 17  2  0
 16 18  2  0
 16 19  1  0
 19 20  2  0
 20 21  1  0
 21 22  2  0
 22 23  1  0
 23 24  1  0
 24 25  1  0
 25 26  2  0
 25 27  1  0
 27 28  1  0
 28 29  1  0
 29 30  2  0
 30 31  1  0
 31 32  2  0
 32 33  1  0
 33 34  2  0
 23 35  2  0
 15  9  1  0
 35 19  1  0
 34 29  1  0
  1 36  1  0
  1 37  1  0
  1 38  1  0
  2 39  1  0
  3 40  1  0
  3 41  1  0
  3 42  1  0
  7 43  1  0
  7 44  1  0
 10 45  1  0
 11 46  1  0
 12 47  1  0
 15 48  1  0
 20 49  1  0
 21 50  1  0
 22 51  1  0
 24 52  1  0
 27 53  1  0
 27 54  1  0
 28 55  1  0
 28 56  1  0
 30 57  1  0
 31 58  1  0
 32 59  1  0
 33 60  1  0
 34 61  1  0
 35 62  1  0
M  END
>  <docking_score>  (2) 
-7.3650000000000002

$$$$

     RDKit          3D

 62 64  0  0  0  0  0  0  0  0999 V2000
  136.8367  123.2267  140.6124 C   0  0  0  0  0  0  0  0  0  0  0  0
  135.4078  123.6101  140.8189 C   0  0  0  0  0  0  0  0  0  0  0  0
  134.5619  122.8776  139.8005 C   0  0  0  0  0  0  0  0  0  0  0  0
  135.1693  124.9960  140.6519 O   0  0  0  0  0  0  0  0  0  0  0  0
  134.4280  125.7436  141.5427 C   0  0  0  0  0  0  0  0  0  0  0  0
  134.6683  125.5014  142.7689 O   0  0  0  0  0  0  0  0  0  0  0  0
  133.4201  126.7612  141.1941 C   0  0  0  0  0  0  0  0  0  0  0  0
  132.5315  126.3855  140.1306 N   0  0  0  0  0  0  0  0  0  0  0  0
  132.7084  126.8531  138.7802 C   0  0  0  0  0  0  0  0  0  0  0  0
  132.0142  127.9136  138.2532 C   0  0  0  0  0  0  0  0  0  0  0  0
  132.2086  128.3379  136.9578 C   0  0  0  0  0  0  0  0  0  0  0  0
  133.1148  127.7130  136.1269 C   0  0  0  0  0  0  0  0  0  0  0  0
  133.8170  126.6469  136.6474 C   0  0  0  0  0  0  0  0  0  0  0  0
  134.9661  125.8420  135.6202 Cl  0  0  0  0  0  0  0  0  0  0  0  0
  133.6245  126.2211  137.9409 C   0  0  0  0  0  0  0  0  0  0  0  0
  131.1925  125.3598  140.4428 S   0  0  0  0  0  0  0  0  0  0  0  0
  130.6452  124.7742  139.1557 O   0  0  0  0  0  0  0  0  0  0  0  0
  131.6065  124.1559  141.2716 O   0  0  0  0  0  0  0  0  0  0  0  0
  129.8923  126.1362  141.2887 C   0  0  0  0  0  0  0  0  0  0  0  0
  129.8396  127.5150  141.3069 C   0  0  0  0  0  0  0  0  0  0  0  0
  128.8061  128.1404  141.9867 C   0  0  0  0  0  0  0  0  0  0  0  0
  127.8623  127.3695  142.6236 C   0  0  0  0  0  0  0  0  0  0  0  0
  127.9109  125.9735  142.6079 C   0  0  0  0  0  0  0  0  0  0  0  0
  126.8800  125.3089  143.2952 N   0  0  0  0  0  0  0  0  0  0  0  0
  125.4961  125.3658  143.0229 C   0  0  0  0  0  0  0  0  0  0  0  0
  125.0813  126.0558  142.0916 O   0  0  0  0  0  0  0  0  0  0  0  0
  124.5002  124.6006  143.8447 C   0  0  0  0  0  0  0  0  0  0  0  0
  123.1615  124.7170  143.1570 C   0  0  0  0  0  0  0  0  0  0  0  0
  122.2706  123.5796  143.4971 C   0  0  0  0  0  0  0  0  0  0  0  0
  120.9450  123.8027  143.8036 C   0  0  0  0  0  0  0  0  0  0  0  0
  120.0861  122.7602  144.1258 C   0  0  0  0  0  0  0  0  0  0  0  0
  120.6335  121.4945  144.1212 C   0  0  0  0  0  0  0  0  0  0  0  0
  121.9551  121.2394  143.8189 C   0  0  0  0  0  0  0  0  0  0  0  0
  122.7962  122.3062  143.4987 C   0  0  0  0  0  0  0  0  0  0  0  0
  128.9351  125.3773  141.9341 C   0  0  0  0  0  0  0  0  0  0  0  0
  137.4276  123.6162  141.4681 H   0  0  0  0  0  0  0  0  0  0  0  0
  136.9960  122.1089  140.6303 H   0  0  0  0  0  0  0  0  0  0  0  0
  137.2827  123.6706  139.6975 H   0  0  0  0  0  0  0  0  0  0  0  0
  135.1053  123.2903  141.8368 H   0  0  0  0  0  0  0  0  0  0  0  0
  135.2596  122.3395  139.1269 H   0  0  0  0  0  0  0  0  0  0  0  0
  133.9484  123.5525  139.1953 H   0  0  0  0  0  0  0  0  0  0  0  0
  133.9335  122.0928  140.2726 H   0  0  0  0  0  0  0  0  0  0  0  0
  132.8377  126.9855  142.1147 H   0  0  0  0  0  0  0  0  0  0  0  0
  133.9172  127.7384  140.9398 H   0  0  0  0  0  0  0  0  0  0  0  0
  131.3002  128.4361  138.8540 H   0  0  0  0  0  0  0  0  0  0  0  0
  131.6452  129.1908  136.5445 H   0  0  0  0  0  0  0  0  0  0  0  0
  133.2742  128.0441  135.0979 H   0  0  0  0  0  0  0  0  0  0  0  0
  134.1771  125.3770  138.3594 H   0  0  0  0  0  0  0  0  0  0  0  0
  130.6007  128.0794  140.7941 H   0  0  0  0  0  0  0  0  0  0  0  0
  128.7760  129.2192  141.9939 H   0  0  0  0  0  0  0  0  0  0  0  0
  127.0660  127.8893  143.1472 H   0  0  0  0  0  0  0  0  0  0  0  0
  127.1232  124.6825  144.1215 H   0  0  0  0  0  0  0  0  0  0  0  0
  124.8118  123.5611  143.9604 H   0  0  0  0  0  0  0  0  0  0  0  0
  124.4633  125.1105  144.8441 H   0  0  0  0  0  0  0  0  0  0  0  0
  123.3588  124.6842  142.0491 H   0  0  0  0  0  0  0  0  0  0  0  0
  122.6924  125.6854  143.3983 H   0  0  0  0  0  0  0  0  0  0  0  0
  120.5592  124.8186  143.7938 H   0  0  0  0  0  0  0  0  0  0  0  0
  119.0390  122.9401  144.3678 H   0  0  0  0  0  0  0  0  0  0  0  0
  120.0095  120.6461  144.3645 H   0  0  0  0  0  0  0  0  0  0  0  0
  122.3835  120.2433  143.8159 H   0  0  0  0  0  0  0  0  0  0  0  0
  123.8359  122.1021  143.2613 H   0  0  0  0  0  0  0  0  0  0  0  0
  129.0310  124.3111  141.8803 H   0  0  0  0  0  0  0  0  0  0  0  0
  1  2  1  0
  2  3  1  0
  2  4  1  0
  4  5  1  0
  5  6  2  0
  5  7  1  0
  7  8  1  0
  8  9  1  0
  9 10  2  0
 10 11  1  0
 11 12  2  0
 12 13  1  0
 13 14  1  0
 13 15  2  0
  8 16  1  0
 16 17  2  0
 16 18  2  0
 16 19  1  0
 19 20  2  0
 20 21  1  0
 21 22  2  0
 22 23  1  0
 23 24  1  0
 24 25  1  0
 25 26  2  0
 25 27  1  0
 27 28  1  0
 28 29  1  0
 29 30  2  0
 30 31  1  0
 31 32  2  0
 32 33  1  0
 33 34  2  0
 23 35  2  0
 15  9  1  0
 35 19  1  0
 34 29  1  0
  1 36  1  0
  1 37  1  0
  1 38  1  0
  2 39  1  0
  3 40  1  0
  3 41  1  0
  3 42  1  0
  7 43  1  0
  7 44  1  0
 10 45  1  0
 11 46  1  0
 12 47  1  0
 15 48  1  0
 20 49  1  0
 21 50  1  0
 22 51  1  0
 24 52  1  0
 27 53  1  0
 27 54  1  0
 28 55  1  0
 28 56  1  0
 30 57  1  0
 31 58  1  0
 32 59  1  0
 33 60  1  0
 34 61  1  0
 35 62  1  0
M  END
>  <docking_score>  (3) 
-7.3170000000000002

$$$$
