
     RDKit          3D

 56 59  0  0  0  0  0  0  0  0999 V2000
  127.9472  128.4203  141.3048 C   0  0  0  0  0  0  0  0  0  0  0  0
  129.0674  127.4904  141.6191 C   0  0  0  0  0  0  0  0  0  0  0  0
  128.4754  126.3806  142.5011 C   0  0  0  0  0  0  0  0  0  0  0  0
  129.7267  126.8684  140.5506 N   0  0  0  0  0  0  0  0  0  0  0  0
  129.8622  125.4683  140.4432 C   0  0  0  0  0  0  0  0  0  0  0  0
  131.3673  125.6863  140.2099 C   0  0  0  0  0  0  0  0  0  0  0  0
  132.0930  125.1036  141.4078 C   0  0  0  0  0  0  0  0  0  0  0  0
  132.1843  123.5947  141.1426 C   0  0  0  0  0  0  0  0  0  0  0  0
  133.1886  123.4675  140.0873 N   0  0  0  0  0  0  0  0  0  0  0  0
  133.9868  122.2716  139.9927 C   0  0  0  0  0  0  0  0  0  0  0  0
  133.4258  121.1572  140.2545 O   0  0  0  0  0  0  0  0  0  0  0  0
  135.3373  122.2577  139.6318 N   0  0  0  0  0  0  0  0  0  0  0  0
  136.2091  121.1551  139.4988 C   0  0  0  0  0  0  0  0  0  0  0  0
  136.2040  120.3934  138.3377 C   0  0  0  0  0  0  0  0  0  0  0  0
  137.0272  119.3134  138.1997 C   0  0  0  0  0  0  0  0  0  0  0  0
  137.0060  118.5854  137.0587 F   0  0  0  0  0  0  0  0  0  0  0  0
  137.8815  118.9561  139.2116 C   0  0  0  0  0  0  0  0  0  0  0  0
  137.9040  119.6919  140.3662 C   0  0  0  0  0  0  0  0  0  0  0  0
  138.7417  119.3565  141.3807 F   0  0  0  0  0  0  0  0  0  0  0  0
  137.0648  120.7898  140.5021 C   0  0  0  0  0  0  0  0  0  0  0  0
  133.3097  124.5780  139.1927 C   0  0  0  0  0  0  0  0  0  0  0  0
  131.8874  125.1088  138.9447 C   0  0  0  0  0  0  0  0  0  0  0  0
  131.1049  127.1533  140.2781 C   0  0  1  0  0  0  0  0  0  0  0  0
  131.1981  127.9366  139.0253 C   0  0  0  0  0  0  0  0  0  0  0  0
  132.4233  128.4212  138.6010 C   0  0  0  0  0  0  0  0  0  0  0  0
  132.5896  129.1684  137.4584 C   0  0  0  0  0  0  0  0  0  0  0  0
  131.4882  129.4521  136.6937 C   0  0  0  0  0  0  0  0  0  0  0  0
  131.6352  130.3978  135.2281 Cl  0  0  0  0  0  0  0  0  0  0  0  0
  130.2560  128.9957  137.0712 C   0  0  0  0  0  0  0  0  0  0  0  0
  130.1238  128.2522  138.2177 C   0  0  0  0  0  0  0  0  0  0  0  0
  128.1412  128.8355  140.2727 H   0  0  0  0  0  0  0  0  0  0  0  0
  126.9544  127.9376  141.2321 H   0  0  0  0  0  0  0  0  0  0  0  0
  127.9466  129.3044  141.9695 H   0  0  0  0  0  0  0  0  0  0  0  0
  129.8335  127.9788  142.2699 H   0  0  0  0  0  0  0  0  0  0  0  0
  127.4870  126.6384  142.8923 H   0  0  0  0  0  0  0  0  0  0  0  0
  128.3282  125.5043  141.8159 H   0  0  0  0  0  0  0  0  0  0  0  0
  129.1969  126.0475  143.2618 H   0  0  0  0  0  0  0  0  0  0  0  0
  129.6064  124.8461  141.3087 H   0  0  0  0  0  0  0  0  0  0  0  0
  129.4254  125.0574  139.4977 H   0  0  0  0  0  0  0  0  0  0  0  0
  133.0660  125.5486  141.6068 H   0  0  0  0  0  0  0  0  0  0  0  0
  131.4846  125.1931  142.3310 H   0  0  0  0  0  0  0  0  0  0  0  0
  131.2174  123.2655  140.7152 H   0  0  0  0  0  0  0  0  0  0  0  0
  132.4910  123.0396  142.0448 H   0  0  0  0  0  0  0  0  0  0  0  0
  135.7615  123.2249  139.4296 H   0  0  0  0  0  0  0  0  0  0  0  0
  135.5143  120.6989  137.5443 H   0  0  0  0  0  0  0  0  0  0  0  0
  138.5425  118.1029  139.1209 H   0  0  0  0  0  0  0  0  0  0  0  0
  137.1458  121.3040  141.4520 H   0  0  0  0  0  0  0  0  0  0  0  0
  133.7961  124.3436  138.2282 H   0  0  0  0  0  0  0  0  0  0  0  0
  133.8254  125.4069  139.7302 H   0  0  0  0  0  0  0  0  0  0  0  0
  131.2412  124.2796  138.5675 H   0  0  0  0  0  0  0  0  0  0  0  0
  131.9978  125.8861  138.1811 H   0  0  0  0  0  0  0  0  0  0  0  0
  131.5480  127.6758  141.1639 H   0  0  0  0  0  0  0  0  0  0  0  0
  133.2870  128.1799  139.2303 H   0  0  0  0  0  0  0  0  0  0  0  0
  133.5826  129.5154  137.1888 H   0  0  0  0  0  0  0  0  0  0  0  0
  129.3938  129.2111  136.4828 H   0  0  0  0  0  0  0  0  0  0  0  0
  129.1481  127.8718  138.5469 H   0  0  0  0  0  0  0  0  0  0  0  0
  1  2  1  0
  2  3  1  0
  2  4  1  0
  4  5  1  0
  5  6  1  0
  6  7  1  0
  7  8  1  0
  8  9  1  0
  9 10  1  0
 10 11  2  0
 10 12  1  0
 12 13  1  0
 13 14  2  0
 14 15  1  0
 15 16  1  0
 15 17  2  0
 17 18  1  0
 18 19  1  0
 18 20  2  0
  9 21  1  0
 21 22  1  0
  6 23  1  0
 23 24  1  0
 24 25  2  0
 25 26  1  0
 26 27  2  0
 27 28  1  0
 27 29  1  0
 29 30  2  0
 23  4  1  0
 30 24  1  0
 22  6  1  0
 20 13  1  0
  1 31  1  0
  1 32  1  0
  1 33  1  0
  2 34  1  0
  3 35  1  0
  3 36  1  0
  3 37  1  0
  5 38  1  0
  5 39  1  0
  7 40  1  0
  7 41  1  0
  8 42  1  0
  8 43  1  0
 12 44  1  0
 14 45  1  0
 17 46  1  0
 20 47  1  0
 21 48  1  0
 21 49  1  0
 22 50  1  0
 22 51  1  0
 23 52  1  1
 25 53  1  0
 26 54  1  0
 29 55  1  0
 30 56  1  0
M  END
>  <docking_score>  (1) 
-8.1920000000000002

$$$$

     RDKit          3D

 56 59  0  0  0  0  0  0  0  0999 V2000
  134.2135  133.3797  136.1632 C   0  0  0  0  0  0  0  0  0  0  0  0
  133.0189  134.2032  136.4998 C   0  0  0  0  0  0  0  0  0  0  0  0
  132.0286  134.0256  135.3388 C   0  0  0  0  0  0  0  0  0  0  0  0
  132.3306  133.9117  137.6849 N   0  0  0  0  0  0  0  0  0  0  0  0
  132.5484  132.7327  138.4285 C   0  0  0  0  0  0  0  0  0  0  0  0
  131.0256  132.5126  138.4230 C   0  0  0  0  0  0  0  0  0  0  0  0
  130.7576  131.2725  137.5917 C   0  0  0  0  0  0  0  0  0  0  0  0
  131.0113  130.0835  138.5284 C   0  0  0  0  0  0  0  0  0  0  0  0
  129.8712  130.0878  139.4443 N   0  0  0  0  0  0  0  0  0  0  0  0
  129.4152  128.8543  140.0330 C   0  0  0  0  0  0  0  0  0  0  0  0
  129.2476  127.8517  139.2636 O   0  0  0  0  0  0  0  0  0  0  0  0
  129.1455  128.6889  141.3947 N   0  0  0  0  0  0  0  0  0  0  0  0
  128.7065  127.5343  142.0786 C   0  0  0  0  0  0  0  0  0  0  0  0
  127.3578  127.2047  142.1039 C   0  0  0  0  0  0  0  0  0  0  0  0
  126.9142  126.1023  142.7755 C   0  0  0  0  0  0  0  0  0  0  0  0
  125.5948  125.7997  142.7863 F   0  0  0  0  0  0  0  0  0  0  0  0
  127.7971  125.2925  143.4433 C   0  0  0  0  0  0  0  0  0  0  0  0
  129.1320  125.5975  143.4328 C   0  0  0  0  0  0  0  0  0  0  0  0
  130.0239  124.8099  144.0869 F   0  0  0  0  0  0  0  0  0  0  0  0
  129.5787  126.7200  142.7483 C   0  0  0  0  0  0  0  0  0  0  0  0
  129.2705  131.3615  139.6997 C   0  0  0  0  0  0  0  0  0  0  0  0
  130.4136  132.3884  139.7701 C   0  0  0  0  0  0  0  0  0  0  0  0
  130.9010  133.8069  137.6916 C   0  0  1  0  0  0  0  0  0  0  0  0
  130.3346  134.9658  138.4181 C   0  0  0  0  0  0  0  0  0  0  0  0
  128.9757  135.2226  138.3604 C   0  0  0  0  0  0  0  0  0  0  0  0
  128.3766  136.2860  138.9942 C   0  0  0  0  0  0  0  0  0  0  0  0
  129.1603  137.1414  139.7240 C   0  0  0  0  0  0  0  0  0  0  0  0
  128.4568  138.5125  140.5540 Cl  0  0  0  0  0  0  0  0  0  0  0  0
  130.5083  136.9298  139.8109 C   0  0  0  0  0  0  0  0  0  0  0  0
  131.0755  135.8587  139.1662 C   0  0  0  0  0  0  0  0  0  0  0  0
  135.0955  134.0828  136.1082 H   0  0  0  0  0  0  0  0  0  0  0  0
  134.4931  132.6370  136.9340 H   0  0  0  0  0  0  0  0  0  0  0  0
  134.1390  132.9401  135.1509 H   0  0  0  0  0  0  0  0  0  0  0  0
  133.2593  135.2946  136.4909 H   0  0  0  0  0  0  0  0  0  0  0  0
  132.5276  133.7904  134.3943 H   0  0  0  0  0  0  0  0  0  0  0  0
  131.4149  133.1255  135.6077 H   0  0  0  0  0  0  0  0  0  0  0  0
  131.3202  134.8657  135.2862 H   0  0  0  0  0  0  0  0  0  0  0  0
  133.1409  131.9277  137.9784 H   0  0  0  0  0  0  0  0  0  0  0  0
  132.8614  132.9329  139.4847 H   0  0  0  0  0  0  0  0  0  0  0  0
  129.7692  131.2381  137.1375 H   0  0  0  0  0  0  0  0  0  0  0  0
  131.5066  131.1601  136.7814 H   0  0  0  0  0  0  0  0  0  0  0  0
  131.9137  130.3100  139.1286 H   0  0  0  0  0  0  0  0  0  0  0  0
  131.0654  129.1316  137.9742 H   0  0  0  0  0  0  0  0  0  0  0  0
  129.2960  129.5678  141.9957 H   0  0  0  0  0  0  0  0  0  0  0  0
  126.6731  127.8657  141.5629 H   0  0  0  0  0  0  0  0  0  0  0  0
  127.4647  124.4133  143.9814 H   0  0  0  0  0  0  0  0  0  0  0  0
  130.6477  126.8857  142.8038 H   0  0  0  0  0  0  0  0  0  0  0  0
  128.6652  131.4100  140.6234 H   0  0  0  0  0  0  0  0  0  0  0  0
  128.6845  131.6598  138.8000 H   0  0  0  0  0  0  0  0  0  0  0  0
  131.1572  132.0655  140.5385 H   0  0  0  0  0  0  0  0  0  0  0  0
  129.9391  133.3295  140.0680 H   0  0  0  0  0  0  0  0  0  0  0  0
  130.5396  133.7239  136.6349 H   0  0  0  0  0  0  0  0  0  0  0  0
  128.3724  134.5236  137.7708 H   0  0  0  0  0  0  0  0  0  0  0  0
  127.3034  136.4245  138.9033 H   0  0  0  0  0  0  0  0  0  0  0  0
  131.1257  137.5894  140.3763 H   0  0  0  0  0  0  0  0  0  0  0  0
  132.1544  135.6626  139.2172 H   0  0  0  0  0  0  0  0  0  0  0  0
  1  2  1  0
  2  3  1  0
  2  4  1  0
  4  5  1  0
  5  6  1  0
  6  7  1  0
  7  8  1  0
  8  9  1  0
  9 10  1  0
 10 11  2  0
 10 12  1  0
 12 13  1  0
 13 14  2  0
 14 15  1  0
 15 16  1  0
 15 17  2  0
 17 18  1  0
 18 19  1  0
 18 20  2  0
  9 21  1  0
 21 22  1  0
  6 23  1  0
 23 24  1  0
 24 25  2  0
 25 26  1  0
 26 27  2  0
 27 28  1  0
 27 29  1  0
 29 30  2  0
 23  4  1  0
 30 24  1  0
 22  6  1  0
 20 13  1  0
  1 31  1  0
  1 32  1  0
  1 33  1  0
  2 34  1  0
  3 35  1  0
  3 36  1  0
  3 37  1  0
  5 38  1  0
  5 39  1  0
  7 40  1  0
  7 41  1  0
  8 42  1  0
  8 43  1  0
 12 44  1  0
 14 45  1  0
 17 46  1  0
 20 47  1  0
 21 48  1  0
 21 49  1  0
 22 50  1  0
 22 51  1  0
 23 52  1  6
 25 53  1  0
 26 54  1  0
 29 55  1  0
 30 56  1  0
M  END
>  <docking_score>  (2) 
-7.6500000000000004

$$$$

     RDKit          3D

 56 59  0  0  0  0  0  0  0  0999 V2000
  138.6485  133.5659  133.1112 C   0  0  0  0  0  0  0  0  0  0  0  0
  138.6330  133.6853  134.5958 C   0  0  0  0  0  0  0  0  0  0  0  0
  137.2366  133.2359  135.0524 C   0  0  0  0  0  0  0  0  0  0  0  0
  139.5707  132.9433  135.3261 N   0  0  0  0  0  0  0  0  0  0  0  0
  139.2046  131.9550  136.2639 C   0  0  0  0  0  0  0  0  0  0  0  0
  140.1420  132.6418  137.2723 C   0  0  0  0  0  0  0  0  0  0  0  0
  139.2696  133.2146  138.3731 C   0  0  0  0  0  0  0  0  0  0  0  0
  138.9731  132.0424  139.3184 C   0  0  0  0  0  0  0  0  0  0  0  0
  140.2344  131.8090  140.0206 N   0  0  0  0  0  0  0  0  0  0  0  0
  140.2264  131.2635  141.3542 C   0  0  0  0  0  0  0  0  0  0  0  0
  140.9404  131.8397  142.2392 O   0  0  0  0  0  0  0  0  0  0  0  0
  139.4845  130.1422  141.7374 N   0  0  0  0  0  0  0  0  0  0  0  0
  139.3935  129.5296  143.0063 C   0  0  0  0  0  0  0  0  0  0  0  0
  140.5023  128.9090  143.5663 C   0  0  0  0  0  0  0  0  0  0  0  0
  140.4270  128.2964  144.7838 C   0  0  0  0  0  0  0  0  0  0  0  0
  141.5208  127.6980  145.3110 F   0  0  0  0  0  0  0  0  0  0  0  0
  139.2471  128.2809  145.4831 C   0  0  0  0  0  0  0  0  0  0  0  0
  138.1401  128.8861  144.9508 C   0  0  0  0  0  0  0  0  0  0  0  0
  136.9619  128.8832  145.6255 F   0  0  0  0  0  0  0  0  0  0  0  0
  138.2214  129.5081  143.7120 C   0  0  0  0  0  0  0  0  0  0  0  0
  141.4275  132.1497  139.3073 C   0  0  0  0  0  0  0  0  0  0  0  0
  141.1953  131.7609  137.8372 C   0  0  0  0  0  0  0  0  0  0  0  0
  140.5085  133.5997  136.1889 C   0  0  1  0  0  0  0  0  0  0  0  0
  141.8621  133.4984  135.5980 C   0  0  0  0  0  0  0  0  0  0  0  0
  142.1364  134.1091  134.3865 C   0  0  0  0  0  0  0  0  0  0  0  0
  143.3624  134.0484  133.7663 C   0  0  0  0  0  0  0  0  0  0  0  0
  144.3715  133.3480  134.3743 C   0  0  0  0  0  0  0  0  0  0  0  0
  145.9542  133.2346  133.6353 Cl  0  0  0  0  0  0  0  0  0  0  0  0
  144.1494  132.7272  135.5720 C   0  0  0  0  0  0  0  0  0  0  0  0
  142.9139  132.8069  136.1650 C   0  0  0  0  0  0  0  0  0  0  0  0
  137.9395  132.7301  132.8388 H   0  0  0  0  0  0  0  0  0  0  0  0
  138.2598  134.4512  132.5737 H   0  0  0  0  0  0  0  0  0  0  0  0
  139.6342  133.2341  132.7347 H   0  0  0  0  0  0  0  0  0  0  0  0
  138.6975  134.7527  134.9205 H   0  0  0  0  0  0  0  0  0  0  0  0
  137.2696  132.3467  135.6886 H   0  0  0  0  0  0  0  0  0  0  0  0
  136.8510  134.0722  135.6935 H   0  0  0  0  0  0  0  0  0  0  0  0
  136.5419  133.1659  134.2024 H   0  0  0  0  0  0  0  0  0  0  0  0
  138.1549  131.8836  136.5717 H   0  0  0  0  0  0  0  0  0  0  0  0
  139.6338  130.9480  136.0287 H   0  0  0  0  0  0  0  0  0  0  0  0
  139.7010  134.0673  138.8937 H   0  0  0  0  0  0  0  0  0  0  0  0
  138.2779  133.5224  137.9832 H   0  0  0  0  0  0  0  0  0  0  0  0
  138.7738  131.1473  138.6980 H   0  0  0  0  0  0  0  0  0  0  0  0
  138.1671  132.2862  140.0306 H   0  0  0  0  0  0  0  0  0  0  0  0
  138.9070  129.6912  140.9504 H   0  0  0  0  0  0  0  0  0  0  0  0
  141.4324  128.9355  142.9897 H   0  0  0  0  0  0  0  0  0  0  0  0
  139.1676  127.8005  146.4504 H   0  0  0  0  0  0  0  0  0  0  0  0
  137.2943  129.9506  143.3684 H   0  0  0  0  0  0  0  0  0  0  0  0
  142.3459  131.6630  139.6835 H   0  0  0  0  0  0  0  0  0  0  0  0
  141.5204  133.2601  139.2893 H   0  0  0  0  0  0  0  0  0  0  0  0
  140.9134  130.6817  137.7777 H   0  0  0  0  0  0  0  0  0  0  0  0
  142.1542  131.9343  137.3372 H   0  0  0  0  0  0  0  0  0  0  0  0
  140.1718  134.6552  136.3525 H   0  0  0  0  0  0  0  0  0  0  0  0
  141.3127  134.6625  133.9223 H   0  0  0  0  0  0  0  0  0  0  0  0
  143.5036  134.5527  132.8151 H   0  0  0  0  0  0  0  0  0  0  0  0
  144.9281  132.1804  136.0523 H   0  0  0  0  0  0  0  0  0  0  0  0
  142.7050  132.3193  137.1261 H   0  0  0  0  0  0  0  0  0  0  0  0
  1  2  1  0
  2  3  1  0
  2  4  1  0
  4  5  1  0
  5  6  1  0
  6  7  1  0
  7  8  1  0
  8  9  1  0
  9 10  1  0
 10 11  2  0
 10 12  1  0
 12 13  1  0
 13 14  2  0
 14 15  1  0
 15 16  1  0
 15 17  2  0
 17 18  1  0
 18 19  1  0
 18 20  2  0
  9 21  1  0
 21 22  1  0
  6 23  1  0
 23 24  1  0
 24 25  2  0
 25 26  1  0
 26 27  2  0
 27 28  1  0
 27 29  1  0
 29 30  2  0
 23  4  1  0
 30 24  1  0
 22  6  1  0
 20 13  1  0
  1 31  1  0
  1 32  1  0
  1 33  1  0
  2 34  1  0
  3 35  1  0
  3 36  1  0
  3 37  1  0
  5 38  1  0
  5 39  1  0
  7 40  1  0
  7 41  1  0
  8 42  1  0
  8 43  1  0
 12 44  1  0
 14 45  1  0
 17 46  1  0
 20 47  1  0
 21 48  1  0
 21 49  1  0
 22 50  1  0
 22 51  1  0
 23 52  1  1
 25 53  1  0
 26 54  1  0
 29 55  1  0
 30 56  1  0
M  END
>  <docking_score>  (3) 
-7.1710000000000003

$$$$
