
     RDKit          3D

 67 69  0  0  0  0  0  0  0  0999 V2000
  138.7016  133.0952  131.7670 C   0  0  0  0  0  0  0  0  0  0  0  0
  139.3123  133.8520  132.9301 C   0  0  0  0  0  0  0  0  0  0  0  0
  138.9304  133.1423  134.1875 C   0  0  2  0  0  0  0  0  0  0  0  0
  137.5796  133.6304  134.6385 C   0  0  0  0  0  0  0  0  0  0  0  0
  140.0073  133.3399  135.2221 C   0  0  2  0  0  0  0  0  0  0  0  0
  141.3314  133.3754  134.5976 N   0  0  0  0  0  0  0  0  0  0  0  0
  142.4042  134.0706  135.2105 C   0  0  0  0  0  0  0  0  0  0  0  0
  142.2222  134.6605  136.2981 O   0  0  0  0  0  0  0  0  0  0  0  0
  143.6728  134.1015  134.6028 N   0  0  0  0  0  0  0  0  0  0  0  0
  144.5131  132.9065  134.6909 C   0  0  0  0  0  0  0  0  0  0  0  0
  145.5850  133.0100  133.6267 C   0  0  0  0  0  0  0  0  0  0  0  0
  146.5258  134.1483  133.9678 C   0  0  0  0  0  0  0  0  0  0  0  0
  145.7277  135.3761  134.2453 C   0  0  0  0  0  0  0  0  0  0  0  0
  144.2407  135.2129  133.8900 C   0  0  0  0  0  0  0  0  0  0  0  0
  147.5130  133.7989  135.0629 C   0  0  0  0  0  0  0  0  0  0  0  0
  148.6031  133.7996  134.1103 N   0  0  0  0  0  0  0  0  0  0  0  0
  149.1741  132.5023  133.9615 C   0  0  0  0  0  0  0  0  0  0  0  0
  150.1968  132.3047  135.0748 C   0  0  0  0  0  0  0  0  0  0  0  0
  149.9088  132.3207  132.6542 C   0  0  0  0  0  0  0  0  0  0  0  0
  147.7066  134.2595  133.0686 C   0  0  2  0  0  0  0  0  0  0  0  0
  148.1238  135.6375  132.6715 C   0  0  0  0  0  0  0  0  0  0  0  0
  149.0514  136.3470  133.3987 C   0  0  0  0  0  0  0  0  0  0  0  0
  149.4270  137.6169  133.0265 C   0  0  0  0  0  0  0  0  0  0  0  0
  148.8725  138.1992  131.9092 C   0  0  0  0  0  0  0  0  0  0  0  0
  149.2617  139.4667  131.5578 F   0  0  0  0  0  0  0  0  0  0  0  0
  147.9426  137.4974  131.1736 C   0  0  0  0  0  0  0  0  0  0  0  0
  147.5743  136.2262  131.5558 C   0  0  0  0  0  0  0  0  0  0  0  0
  139.9501  132.1546  136.1373 C   0  0  0  0  0  0  0  0  0  0  0  0
  140.1787  131.0000  135.6939 O   0  0  0  0  0  0  0  0  0  0  0  0
  139.6506  132.2806  137.4745 O   0  0  0  0  0  0  0  0  0  0  0  0
  138.3888  131.9573  138.0243 C   0  0  0  0  0  0  0  0  0  0  0  0
  138.0689  132.2753  132.1854 H   0  0  0  0  0  0  0  0  0  0  0  0
  139.5139  132.6344  131.1786 H   0  0  0  0  0  0  0  0  0  0  0  0
  138.1191  133.7923  131.1414 H   0  0  0  0  0  0  0  0  0  0  0  0
  140.4061  133.9252  132.8026 H   0  0  0  0  0  0  0  0  0  0  0  0
  138.8426  134.8596  132.9231 H   0  0  0  0  0  0  0  0  0  0  0  0
  138.8893  132.0368  133.9826 H   0  0  0  0  0  0  0  0  0  0  0  0
  137.7110  134.2811  135.5140 H   0  0  0  0  0  0  0  0  0  0  0  0
  137.1044  134.1677  133.7998 H   0  0  0  0  0  0  0  0  0  0  0  0
  136.9540  132.7366  134.8479 H   0  0  0  0  0  0  0  0  0  0  0  0
  139.8890  134.2818  135.7813 H   0  0  0  0  0  0  0  0  0  0  0  0
  141.4371  132.8583  133.6806 H   0  0  0  0  0  0  0  0  0  0  0  0
  144.9030  132.7385  135.6940 H   0  0  0  0  0  0  0  0  0  0  0  0
  143.8666  132.0473  134.4173 H   0  0  0  0  0  0  0  0  0  0  0  0
  146.0786  132.0388  133.5737 H   0  0  0  0  0  0  0  0  0  0  0  0
  145.0951  133.2001  132.6687 H   0  0  0  0  0  0  0  0  0  0  0  0
  146.0412  136.2745  133.6722 H   0  0  0  0  0  0  0  0  0  0  0  0
  145.7396  135.5562  135.3408 H   0  0  0  0  0  0  0  0  0  0  0  0
  143.7763  136.1656  134.1707 H   0  0  0  0  0  0  0  0  0  0  0  0
  144.2292  135.0433  132.7856 H   0  0  0  0  0  0  0  0  0  0  0  0
  147.2698  132.7893  135.4807 H   0  0  0  0  0  0  0  0  0  0  0  0
  147.5800  134.5089  135.8920 H   0  0  0  0  0  0  0  0  0  0  0  0
  148.4514  131.6693  134.0582 H   0  0  0  0  0  0  0  0  0  0  0  0
  151.0006  133.0578  134.8952 H   0  0  0  0  0  0  0  0  0  0  0  0
  150.6252  131.2775  134.9745 H   0  0  0  0  0  0  0  0  0  0  0  0
  149.7372  132.4671  136.0732 H   0  0  0  0  0  0  0  0  0  0  0  0
  150.3074  131.2842  132.6389 H   0  0  0  0  0  0  0  0  0  0  0  0
  150.7495  133.0061  132.5347 H   0  0  0  0  0  0  0  0  0  0  0  0
  149.2433  132.4196  131.7745 H   0  0  0  0  0  0  0  0  0  0  0  0
  147.6125  133.5947  132.1984 H   0  0  0  0  0  0  0  0  0  0  0  0
  149.5124  135.9395  134.2771 H   0  0  0  0  0  0  0  0  0  0  0  0
  150.1563  138.2028  133.5792 H   0  0  0  0  0  0  0  0  0  0  0  0
  147.5091  137.9775  130.2843 H   0  0  0  0  0  0  0  0  0  0  0  0
  146.8260  135.6954  130.9417 H   0  0  0  0  0  0  0  0  0  0  0  0
  138.1820  132.6856  138.8315 H   0  0  0  0  0  0  0  0  0  0  0  0
  137.6010  131.9829  137.2222 H   0  0  0  0  0  0  0  0  0  0  0  0
  138.4516  130.9610  138.5045 H   0  0  0  0  0  0  0  0  0  0  0  0
  1  2  1  0
  2  3  1  0
  3  4  1  0
  3  5  1  0
  5  6  1  0
  6  7  1  0
  7  8  2  0
  7  9  1  0
  9 10  1  0
 10 11  1  0
 11 12  1  0
 12 13  1  0
 13 14  1  0
 12 15  1  0
 15 16  1  0
 16 17  1  0
 17 18  1  0
 17 19  1  0
 16 20  1  0
 20 21  1  0
 21 22  2  0
 22 23  1  0
 23 24  2  0
 24 25  1  0
 24 26  1  0
 26 27  2  0
  5 28  1  0
 28 29  2  0
 28 30  1  0
 30 31  1  0
 14  9  1  0
 27 21  1  0
 20 12  1  0
  1 32  1  0
  1 33  1  0
  1 34  1  0
  2 35  1  0
  2 36  1  0
  3 37  1  6
  4 38  1  0
  4 39  1  0
  4 40  1  0
  5 41  1  1
  6 42  1  0
 10 43  1  0
 10 44  1  0
 11 45  1  0
 11 46  1  0
 13 47  1  0
 13 48  1  0
 14 49  1  0
 14 50  1  0
 15 51  1  0
 15 52  1  0
 17 53  1  0
 18 54  1  0
 18 55  1  0
 18 56  1  0
 19 57  1  0
 19 58  1  0
 19 59  1  0
 20 60  1  6
 22 61  1  0
 23 62  1  0
 26 63  1  0
 27 64  1  0
 31 65  1  0
 31 66  1  0
 31 67  1  0
M  END
>  <docking_score>  (1) 
-6.3019999999999996

$$$$

     RDKit          3D

 67 69  0  0  0  0  0  0  0  0999 V2000
  150.3595  131.1779  137.3565 C   0  0  0  0  0  0  0  0  0  0  0  0
  149.4344  131.0339  136.1641 C   0  0  0  0  0  0  0  0  0  0  0  0
  150.1910  131.4520  134.9462 C   0  0  2  0  0  0  0  0  0  0  0  0
  150.9568  132.7121  135.2496 C   0  0  0  0  0  0  0  0  0  0  0  0
  149.2371  131.6025  133.7900 C   0  0  2  0  0  0  0  0  0  0  0  0
  147.8817  131.8886  134.2649 N   0  0  0  0  0  0  0  0  0  0  0  0
  147.2337  133.1019  133.9215 C   0  0  0  0  0  0  0  0  0  0  0  0
  147.8225  133.9397  133.2036 O   0  0  0  0  0  0  0  0  0  0  0  0
  145.9321  133.3698  134.3837 N   0  0  0  0  0  0  0  0  0  0  0  0
  145.7198  133.4908  135.8267 C   0  0  0  0  0  0  0  0  0  0  0  0
  144.3996  134.1985  136.0467 C   0  0  0  0  0  0  0  0  0  0  0  0
  143.2659  133.3069  135.5809 C   0  0  0  0  0  0  0  0  0  0  0  0
  143.5553  132.8296  134.1988 C   0  0  0  0  0  0  0  0  0  0  0  0
  144.7632  133.5386  133.5644 C   0  0  0  0  0  0  0  0  0  0  0  0
  142.9413  132.1948  136.5574 C   0  0  0  0  0  0  0  0  0  0  0  0
  141.6848  132.8292  136.8955 N   0  0  0  0  0  0  0  0  0  0  0  0
  141.6606  133.2609  138.2536 C   0  0  0  0  0  0  0  0  0  0  0  0
  141.2482  132.0759  139.1197 C   0  0  0  0  0  0  0  0  0  0  0  0
  140.6590  134.3619  138.5114 C   0  0  0  0  0  0  0  0  0  0  0  0
  141.9068  133.8361  135.8772 C   0  0  2  0  0  0  0  0  0  0  0  0
  140.8696  133.6614  134.8169 C   0  0  0  0  0  0  0  0  0  0  0  0
  139.7637  132.8675  135.0149 C   0  0  0  0  0  0  0  0  0  0  0  0
  138.8153  132.7105  134.0309 C   0  0  0  0  0  0  0  0  0  0  0  0
  138.9637  133.3533  132.8228 C   0  0  0  0  0  0  0  0  0  0  0  0
  138.0056  133.1813  131.8563 F   0  0  0  0  0  0  0  0  0  0  0  0
  140.0676  134.1509  132.6139 C   0  0  0  0  0  0  0  0  0  0  0  0
  141.0108  134.3008  133.6067 C   0  0  0  0  0  0  0  0  0  0  0  0
  149.2167  130.2870  133.0724 C   0  0  0  0  0  0  0  0  0  0  0  0
  150.2699  129.6082  132.9634 O   0  0  0  0  0  0  0  0  0  0  0  0
  148.0656  129.7793  132.5148 O   0  0  0  0  0  0  0  0  0  0  0  0
  147.9196  129.5156  131.1335 C   0  0  0  0  0  0  0  0  0  0  0  0
  149.7272  131.2555  138.2740 H   0  0  0  0  0  0  0  0  0  0  0  0
  150.9281  132.1183  137.2522 H   0  0  0  0  0  0  0  0  0  0  0  0
  151.0448  130.3145  137.3952 H   0  0  0  0  0  0  0  0  0  0  0  0
  149.0635  129.9967  136.0949 H   0  0  0  0  0  0  0  0  0  0  0  0
  148.5974  131.7452  136.3354 H   0  0  0  0  0  0  0  0  0  0  0  0
  150.9040  130.6297  134.6613 H   0  0  0  0  0  0  0  0  0  0  0  0
  152.0307  132.5123  135.1319 H   0  0  0  0  0  0  0  0  0  0  0  0
  150.6124  133.5040  134.5624 H   0  0  0  0  0  0  0  0  0  0  0  0
  150.6814  133.0313  136.2774 H   0  0  0  0  0  0  0  0  0  0  0  0
  149.5211  132.4227  133.1114 H   0  0  0  0  0  0  0  0  0  0  0  0
  147.4237  131.1478  134.8656 H   0  0  0  0  0  0  0  0  0  0  0  0
  145.8002  132.5367  136.3459 H   0  0  0  0  0  0  0  0  0  0  0  0
  146.5159  134.1646  136.2055 H   0  0  0  0  0  0  0  0  0  0  0  0
  144.3455  134.4533  137.1059 H   0  0  0  0  0  0  0  0  0  0  0  0
  144.4112  135.1260  135.4694 H   0  0  0  0  0  0  0  0  0  0  0  0
  142.7354  132.9954  133.4679 H   0  0  0  0  0  0  0  0  0  0  0  0
  143.8515  131.7612  134.2566 H   0  0  0  0  0  0  0  0  0  0  0  0
  144.8784  133.0738  132.5780 H   0  0  0  0  0  0  0  0  0  0  0  0
  144.4594  134.6117  133.4961 H   0  0  0  0  0  0  0  0  0  0  0  0
  143.6918  132.1923  137.3880 H   0  0  0  0  0  0  0  0  0  0  0  0
  142.8892  131.1870  136.1359 H   0  0  0  0  0  0  0  0  0  0  0  0
  142.6392  133.5999  138.6444 H   0  0  0  0  0  0  0  0  0  0  0  0
  141.7864  131.1888  138.7087 H   0  0  0  0  0  0  0  0  0  0  0  0
  140.1471  131.9261  139.0017 H   0  0  0  0  0  0  0  0  0  0  0  0
  141.5336  132.2381  140.1811 H   0  0  0  0  0  0  0  0  0  0  0  0
  140.4257  134.8337  137.5336 H   0  0  0  0  0  0  0  0  0  0  0  0
  141.0365  135.1389  139.1782 H   0  0  0  0  0  0  0  0  0  0  0  0
  139.7021  133.9802  138.9179 H   0  0  0  0  0  0  0  0  0  0  0  0
  141.9501  134.8730  136.2392 H   0  0  0  0  0  0  0  0  0  0  0  0
  139.6013  132.3445  135.9371 H   0  0  0  0  0  0  0  0  0  0  0  0
  137.9314  132.0910  134.1562 H   0  0  0  0  0  0  0  0  0  0  0  0
  140.1710  134.6567  131.6430 H   0  0  0  0  0  0  0  0  0  0  0  0
  141.8819  134.9476  133.4023 H   0  0  0  0  0  0  0  0  0  0  0  0
  147.6810  130.4749  130.6359 H   0  0  0  0  0  0  0  0  0  0  0  0
  148.8611  129.0536  130.7277 H   0  0  0  0  0  0  0  0  0  0  0  0
  147.0428  128.8548  130.9854 H   0  0  0  0  0  0  0  0  0  0  0  0
  1  2  1  0
  2  3  1  0
  3  4  1  0
  3  5  1  0
  5  6  1  0
  6  7  1  0
  7  8  2  0
  7  9  1  0
  9 10  1  0
 10 11  1  0
 11 12  1  0
 12 13  1  0
 13 14  1  0
 12 15  1  0
 15 16  1  0
 16 17  1  0
 17 18  1  0
 17 19  1  0
 16 20  1  0
 20 21  1  0
 21 22  2  0
 22 23  1  0
 23 24  2  0
 24 25  1  0
 24 26  1  0
 26 27  2  0
  5 28  1  0
 28 29  2  0
 28 30  1  0
 30 31  1  0
 14  9  1  0
 27 21  1  0
 20 12  1  0
  1 32  1  0
  1 33  1  0
  1 34  1  0
  2 35  1  0
  2 36  1  0
  3 37  1  6
  4 38  1  0
  4 39  1  0
  4 40  1  0
  5 41  1  6
  6 42  1  0
 10 43  1  0
 10 44  1  0
 11 45  1  0
 11 46  1  0
 13 47  1  0
 13 48  1  0
 14 49  1  0
 14 50  1  0
 15 51  1  0
 15 52  1  0
 17 53  1  0
 18 54  1  0
 18 55  1  0
 18 56  1  0
 19 57  1  0
 19 58  1  0
 19 59  1  0
 20 60  1  1
 22 61  1  0
 23 62  1  0
 26 63  1  0
 27 64  1  0
 31 65  1  0
 31 66  1  0
 31 67  1  0
M  END
>  <docking_score>  (2) 
-6.0220000000000002

$$$$

     RDKit          3D

 67 69  0  0  0  0  0  0  0  0999 V2000
  132.0255  133.2510  135.6308 C   0  0  0  0  0  0  0  0  0  0  0  0
  133.0490  132.1849  135.9689 C   0  0  0  0  0  0  0  0  0  0  0  0
  132.3834  130.8546  135.8364 C   0  0  2  0  0  0  0  0  0  0  0  0
  130.9511  130.9728  136.2848 C   0  0  0  0  0  0  0  0  0  0  0  0
  133.1631  129.8241  136.6105 C   0  0  2  0  0  0  0  0  0  0  0  0
  134.5300  130.2848  136.8635 N   0  0  0  0  0  0  0  0  0  0  0  0
  135.1621  130.0325  138.1072 C   0  0  0  0  0  0  0  0  0  0  0  0
  134.5491  129.4081  139.0007 O   0  0  0  0  0  0  0  0  0  0  0  0
  136.4748  130.4804  138.3428 N   0  0  0  0  0  0  0  0  0  0  0  0
  136.8541  130.8255  139.7137 C   0  0  0  0  0  0  0  0  0  0  0  0
  138.3661  130.8408  139.7899 C   0  0  0  0  0  0  0  0  0  0  0  0
  138.9012  131.9899  138.9590 C   0  0  0  0  0  0  0  0  0  0  0  0
  138.2932  131.9349  137.5992 C   0  0  0  0  0  0  0  0  0  0  0  0
  137.5036  130.6391  137.3517 C   0  0  0  0  0  0  0  0  0  0  0  0
  138.7583  133.3359  139.6398 C   0  0  0  0  0  0  0  0  0  0  0  0
  140.1913  133.4163  139.8296 N   0  0  0  0  0  0  0  0  0  0  0  0
  140.5426  133.3895  141.2106 C   0  0  0  0  0  0  0  0  0  0  0  0
  140.4906  134.8183  141.7400 C   0  0  0  0  0  0  0  0  0  0  0  0
  141.9429  132.8805  141.4597 C   0  0  0  0  0  0  0  0  0  0  0  0
  140.3711  132.1955  139.0697 C   0  0  2  0  0  0  0  0  0  0  0  0
  141.1008  132.5346  137.8114 C   0  0  0  0  0  0  0  0  0  0  0  0
  141.6919  131.5630  137.0373 C   0  0  0  0  0  0  0  0  0  0  0  0
  142.3643  131.8857  135.8814 C   0  0  0  0  0  0  0  0  0  0  0  0
  142.4546  133.1997  135.4815 C   0  0  0  0  0  0  0  0  0  0  0  0
  143.1308  133.4978  134.3258 F   0  0  0  0  0  0  0  0  0  0  0  0
  141.8661  134.1808  136.2493 C   0  0  0  0  0  0  0  0  0  0  0  0
  141.1951  133.8457  137.4048 C   0  0  0  0  0  0  0  0  0  0  0  0
  133.2310  128.5982  135.7511 C   0  0  0  0  0  0  0  0  0  0  0  0
  132.7073  128.5960  134.6077 O   0  0  0  0  0  0  0  0  0  0  0  0
  133.8579  127.4475  136.1718 O   0  0  0  0  0  0  0  0  0  0  0  0
  134.9356  126.8495  135.4792 C   0  0  0  0  0  0  0  0  0  0  0  0
  132.1842  134.1116  136.3249 H   0  0  0  0  0  0  0  0  0  0  0  0
  131.0161  132.8442  135.8154 H   0  0  0  0  0  0  0  0  0  0  0  0
  132.1365  133.5435  134.5731 H   0  0  0  0  0  0  0  0  0  0  0  0
  133.9302  132.2831  135.3116 H   0  0  0  0  0  0  0  0  0  0  0  0
  133.3259  132.3497  137.0329 H   0  0  0  0  0  0  0  0  0  0  0  0
  132.4220  130.5347  134.7585 H   0  0  0  0  0  0  0  0  0  0  0  0
  130.8887  130.7063  137.3488 H   0  0  0  0  0  0  0  0  0  0  0  0
  130.6129  132.0076  136.1039 H   0  0  0  0  0  0  0  0  0  0  0  0
  130.3409  130.3127  135.6320 H   0  0  0  0  0  0  0  0  0  0  0  0
  132.7117  129.6000  137.5902 H   0  0  0  0  0  0  0  0  0  0  0  0
  135.0084  130.8047  136.0760 H   0  0  0  0  0  0  0  0  0  0  0  0
  136.3861  131.7455  140.0615 H   0  0  0  0  0  0  0  0  0  0  0  0
  136.5056  129.9901  140.3554 H   0  0  0  0  0  0  0  0  0  0  0  0
  138.6329  130.9061  140.8455 H   0  0  0  0  0  0  0  0  0  0  0  0
  138.7354  129.8895  139.3996 H   0  0  0  0  0  0  0  0  0  0  0  0
  139.0223  131.9664  136.7618 H   0  0  0  0  0  0  0  0  0  0  0  0
  137.5385  132.7458  137.5247 H   0  0  0  0  0  0  0  0  0  0  0  0
  137.0919  130.7470  136.3413 H   0  0  0  0  0  0  0  0  0  0  0  0
  138.2663  129.8248  137.4155 H   0  0  0  0  0  0  0  0  0  0  0  0
  138.1760  133.2179  140.5886 H   0  0  0  0  0  0  0  0  0  0  0  0
  138.2929  134.1268  139.0450 H   0  0  0  0  0  0  0  0  0  0  0  0
  139.8541  132.8017  141.8476 H   0  0  0  0  0  0  0  0  0  0  0  0
  140.6936  134.7511  142.8354 H   0  0  0  0  0  0  0  0  0  0  0  0
  139.4564  135.2103  141.5804 H   0  0  0  0  0  0  0  0  0  0  0  0
  141.2565  135.4551  141.2478 H   0  0  0  0  0  0  0  0  0  0  0  0
  142.3958  132.6580  140.4705 H   0  0  0  0  0  0  0  0  0  0  0  0
  141.9683  131.9660  142.0546 H   0  0  0  0  0  0  0  0  0  0  0  0
  142.5907  133.6367  141.9444 H   0  0  0  0  0  0  0  0  0  0  0  0
  140.8524  131.3685  139.6105 H   0  0  0  0  0  0  0  0  0  0  0  0
  141.6514  130.5252  137.3047 H   0  0  0  0  0  0  0  0  0  0  0  0
  142.8415  131.1423  135.2487 H   0  0  0  0  0  0  0  0  0  0  0  0
  141.9481  135.2254  135.9157 H   0  0  0  0  0  0  0  0  0  0  0  0
  140.7369  134.6592  137.9940 H   0  0  0  0  0  0  0  0  0  0  0  0
  134.6029  125.8467  135.1500 H   0  0  0  0  0  0  0  0  0  0  0  0
  135.2431  127.4966  134.6124 H   0  0  0  0  0  0  0  0  0  0  0  0
  135.7723  126.6896  136.1875 H   0  0  0  0  0  0  0  0  0  0  0  0
  1  2  1  0
  2  3  1  0
  3  4  1  0
  3  5  1  0
  5  6  1  0
  6  7  1  0
  7  8  2  0
  7  9  1  0
  9 10  1  0
 10 11  1  0
 11 12  1  0
 12 13  1  0
 13 14  1  0
 12 15  1  0
 15 16  1  0
 16 17  1  0
 17 18  1  0
 17 19  1  0
 16 20  1  0
 20 21  1  0
 21 22  2  0
 22 23  1  0
 23 24  2  0
 24 25  1  0
 24 26  1  0
 26 27  2  0
  5 28  1  0
 28 29  2  0
 28 30  1  0
 30 31  1  0
 14  9  1  0
 27 21  1  0
 20 12  1  0
  1 32  1  0
  1 33  1  0
  1 34  1  0
  2 35  1  0
  2 36  1  0
  3 37  1  6
  4 38  1  0
  4 39  1  0
  4 40  1  0
  5 41  1  1
  6 42  1  0
 10 43  1  0
 10 44  1  0
 11 45  1  0
 11 46  1  0
 13 47  1  0
 13 48  1  0
 14 49  1  0
 14 50  1  0
 15 51  1  0
 15 52  1  0
 17 53  1  0
 18 54  1  0
 18 55  1  0
 18 56  1  0
 19 57  1  0
 19 58  1  0
 19 59  1  0
 20 60  1  1
 22 61  1  0
 23 62  1  0
 26 63  1  0
 27 64  1  0
 31 65  1  0
 31 66  1  0
 31 67  1  0
M  END
>  <docking_score>  (3) 
-5.9900000000000002

$$$$
