
     RDKit          3D

 68 71  0  0  0  0  0  0  0  0999 V2000
  130.5594  131.8629  139.5879 C   0  0  0  0  0  0  0  0  0  0  0  0
  131.2679  133.1171  139.3721 N   0  0  0  0  0  0  0  0  0  0  0  0
  131.6613  133.9735  140.4615 C   0  0  0  0  0  0  0  0  0  0  0  0
  133.0563  133.6522  140.9453 C   0  0  0  0  0  0  0  0  0  0  0  0
  133.2029  132.9147  141.9394 O   0  0  0  0  0  0  0  0  0  0  0  0
  134.1519  134.1969  140.2574 N   0  0  0  0  0  0  0  0  0  0  0  0
  135.5037  133.9784  140.5895 C   0  0  0  0  0  0  0  0  0  0  0  0
  136.1836  134.9828  141.2986 C   0  0  0  0  0  0  0  0  0  0  0  0
  137.5051  134.8413  141.6363 C   0  0  0  0  0  0  0  0  0  0  0  0
  138.2084  133.7194  141.2958 C   0  0  0  0  0  0  0  0  0  0  0  0
  137.5748  132.7143  140.6002 C   0  0  0  0  0  0  0  0  0  0  0  0
  138.4831  131.3078  140.1740 S   0  0  0  0  0  0  0  0  0  0  0  0
  138.9930  130.5626  141.3705 O   0  0  0  0  0  0  0  0  0  0  0  0
  137.5661  130.3548  139.4322 O   0  0  0  0  0  0  0  0  0  0  0  0
  139.7501  131.7560  139.1033 N   0  0  0  0  0  0  0  0  0  0  0  0
  141.0976  131.7664  139.6206 C   0  0  0  0  0  0  0  0  0  0  0  0
  141.4682  133.0203  140.2937 C   0  0  0  0  0  0  0  0  0  0  0  0
  142.0308  132.9642  141.5433 C   0  0  0  0  0  0  0  0  0  0  0  0
  142.3878  134.1270  142.2083 C   0  0  0  0  0  0  0  0  0  0  0  0
  142.1828  135.3465  141.6249 C   0  0  0  0  0  0  0  0  0  0  0  0
  141.6150  135.4345  140.3600 C   0  0  0  0  0  0  0  0  0  0  0  0
  141.2662  134.2480  139.7154 C   0  0  0  0  0  0  0  0  0  0  0  0
  139.4626  132.1031  137.7447 C   0  0  0  0  0  0  0  0  0  0  0  0
  140.4658  132.2962  136.8220 C   0  0  0  0  0  0  0  0  0  0  0  0
  140.1228  132.6277  135.5307 C   0  0  0  0  0  0  0  0  0  0  0  0
  138.8118  132.7763  135.1168 C   0  0  0  0  0  0  0  0  0  0  0  0
  137.7954  132.5867  136.0280 C   0  0  0  0  0  0  0  0  0  0  0  0
  136.1042  132.7509  135.6064 Cl  0  0  0  0  0  0  0  0  0  0  0  0
  138.1544  132.2560  137.3130 C   0  0  0  0  0  0  0  0  0  0  0  0
  136.2275  132.8722  140.2626 C   0  0  0  0  0  0  0  0  0  0  0  0
  131.5700  133.4945  138.0483 C   0  0  0  0  0  0  0  0  0  0  0  0
  131.0455  134.5047  137.5432 O   0  0  0  0  0  0  0  0  0  0  0  0
  132.4559  132.7334  137.3095 O   0  0  0  0  0  0  0  0  0  0  0  0
  132.1418  132.4352  135.9781 C   0  0  0  0  0  0  0  0  0  0  0  0
  132.4221  130.9981  135.6367 C   0  0  0  0  0  0  0  0  0  0  0  0
  131.4175  130.2473  135.0523 C   0  0  0  0  0  0  0  0  0  0  0  0
  131.6557  128.9394  134.7396 C   0  0  0  0  0  0  0  0  0  0  0  0
  132.8572  128.3337  134.9818 C   0  0  0  0  0  0  0  0  0  0  0  0
  133.8514  129.0884  135.5637 C   0  0  0  0  0  0  0  0  0  0  0  0
  133.6322  130.4099  135.8873 C   0  0  0  0  0  0  0  0  0  0  0  0
  130.8672  131.3894  140.5312 H   0  0  0  0  0  0  0  0  0  0  0  0
  130.6820  131.1450  138.7682 H   0  0  0  0  0  0  0  0  0  0  0  0
  129.4515  132.0749  139.6389 H   0  0  0  0  0  0  0  0  0  0  0  0
  131.6712  135.0243  140.1312 H   0  0  0  0  0  0  0  0  0  0  0  0
  131.0119  133.8460  141.3519 H   0  0  0  0  0  0  0  0  0  0  0  0
  133.9083  134.8241  139.4160 H   0  0  0  0  0  0  0  0  0  0  0  0
  135.6279  135.8674  141.5666 H   0  0  0  0  0  0  0  0  0  0  0  0
  137.9915  135.6392  142.1833 H   0  0  0  0  0  0  0  0  0  0  0  0
  139.2514  133.6282  141.5731 H   0  0  0  0  0  0  0  0  0  0  0  0
  141.8339  131.5266  138.7973 H   0  0  0  0  0  0  0  0  0  0  0  0
  141.1973  130.8810  140.3156 H   0  0  0  0  0  0  0  0  0  0  0  0
  142.2144  132.0114  142.0512 H   0  0  0  0  0  0  0  0  0  0  0  0
  142.8330  134.0244  143.2035 H   0  0  0  0  0  0  0  0  0  0  0  0
  142.4617  136.2511  142.1446 H   0  0  0  0  0  0  0  0  0  0  0  0
  141.4535  136.4036  139.8993 H   0  0  0  0  0  0  0  0  0  0  0  0
  140.8270  134.3515  138.7325 H   0  0  0  0  0  0  0  0  0  0  0  0
  141.5006  132.1823  137.1352 H   0  0  0  0  0  0  0  0  0  0  0  0
  140.9196  132.7802  134.7990 H   0  0  0  0  0  0  0  0  0  0  0  0
  138.5676  133.0394  134.0869 H   0  0  0  0  0  0  0  0  0  0  0  0
  137.3510  132.1087  138.0234 H   0  0  0  0  0  0  0  0  0  0  0  0
  135.7933  132.0622  139.7153 H   0  0  0  0  0  0  0  0  0  0  0  0
  132.7109  133.0632  135.2486 H   0  0  0  0  0  0  0  0  0  0  0  0
  131.0426  132.5819  135.8027 H   0  0  0  0  0  0  0  0  0  0  0  0
  130.4478  130.7257  134.8534 H   0  0  0  0  0  0  0  0  0  0  0  0
  130.8631  128.3424  134.2772 H   0  0  0  0  0  0  0  0  0  0  0  0
  133.0500  127.2805  134.7301 H   0  0  0  0  0  0  0  0  0  0  0  0
  134.8252  128.6572  135.7785 H   0  0  0  0  0  0  0  0  0  0  0  0
  134.4248  131.0097  136.3527 H   0  0  0  0  0  0  0  0  0  0  0  0
  1  2  1  0
  2  3  1  0
  3  4  1  0
  4  5  2  0
  4  6  1  0
  6  7  1  0
  7  8  2  0
  8  9  1  0
  9 10  2  0
 10 11  1  0
 11 12  1  0
 12 13  2  0
 12 14  2  0
 12 15  1  0
 15 16  1  0
 16 17  1  0
 17 18  2  0
 18 19  1  0
 19 20  2  0
 20 21  1  0
 21 22  2  0
 15 23  1  0
 23 24  2  0
 24 25  1  0
 25 26  2  0
 26 27  1  0
 27 28  1  0
 27 29  2  0
 11 30  2  0
  2 31  1  0
 31 32  2  0
 31 33  1  0
 33 34  1  0
 34 35  1  0
 35 36  2  0
 36 37  1  0
 37 38  2  0
 38 39  1  0
 39 40  2  0
 30  7  1  0
 40 35  1  0
 22 17  1  0
 29 23  1  0
  1 41  1  0
  1 42  1  0
  1 43  1  0
  3 44  1  0
  3 45  1  0
  6 46  1  0
  8 47  1  0
  9 48  1  0
 10 49  1  0
 16 50  1  0
 16 51  1  0
 18 52  1  0
 19 53  1  0
 20 54  1  0
 21 55  1  0
 22 56  1  0
 24 57  1  0
 25 58  1  0
 26 59  1  0
 29 60  1  0
 30 61  1  0
 34 62  1  0
 34 63  1  0
 36 64  1  0
 37 65  1  0
 38 66  1  0
 39 67  1  0
 40 68  1  0
M  END
>  <docking_score>  (1) 
-7.6580000000000004

$$$$

     RDKit          3D

 68 71  0  0  0  0  0  0  0  0999 V2000
  131.8176  133.7833  138.1787 C   0  0  0  0  0  0  0  0  0  0  0  0
  130.7452  132.8228  137.9579 N   0  0  0  0  0  0  0  0  0  0  0  0
  130.5325  132.1902  136.6813 C   0  0  0  0  0  0  0  0  0  0  0  0
  130.9859  130.7489  136.6927 C   0  0  0  0  0  0  0  0  0  0  0  0
  130.1355  129.8407  136.6169 O   0  0  0  0  0  0  0  0  0  0  0  0
  132.3589  130.4736  136.7892 N   0  0  0  0  0  0  0  0  0  0  0  0
  132.9248  129.1832  136.8038 C   0  0  0  0  0  0  0  0  0  0  0  0
  132.9312  128.4477  135.6068 C   0  0  0  0  0  0  0  0  0  0  0  0
  133.4494  127.1791  135.5572 C   0  0  0  0  0  0  0  0  0  0  0  0
  133.9780  126.5843  136.6690 C   0  0  0  0  0  0  0  0  0  0  0  0
  133.9885  127.2751  137.8600 C   0  0  0  0  0  0  0  0  0  0  0  0
  134.6551  126.5033  139.2545 S   0  0  0  0  0  0  0  0  0  0  0  0
  135.9846  125.8659  138.9842 O   0  0  0  0  0  0  0  0  0  0  0  0
  134.8922  127.5595  140.3164 O   0  0  0  0  0  0  0  0  0  0  0  0
  133.5145  125.3797  139.8784 N   0  0  0  0  0  0  0  0  0  0  0  0
  133.2018  124.2211  139.0764 C   0  0  0  0  0  0  0  0  0  0  0  0
  133.8408  122.9819  139.5442 C   0  0  0  0  0  0  0  0  0  0  0  0
  135.1945  122.8294  139.3844 C   0  0  0  0  0  0  0  0  0  0  0  0
  135.8283  121.6722  139.8096 C   0  0  0  0  0  0  0  0  0  0  0  0
  135.1098  120.6668  140.3948 C   0  0  0  0  0  0  0  0  0  0  0  0
  133.7374  120.7931  140.5701 C   0  0  0  0  0  0  0  0  0  0  0  0
  133.1274  121.9684  140.1326 C   0  0  0  0  0  0  0  0  0  0  0  0
  132.9043  125.5988  141.1545 C   0  0  0  0  0  0  0  0  0  0  0  0
  131.5367  125.6604  141.2988 C   0  0  0  0  0  0  0  0  0  0  0  0
  131.0123  125.8728  142.5538 C   0  0  0  0  0  0  0  0  0  0  0  0
  131.7995  126.0279  143.6800 C   0  0  0  0  0  0  0  0  0  0  0  0
  133.1705  125.9691  143.5530 C   0  0  0  0  0  0  0  0  0  0  0  0
  134.2554  126.1532  144.9146 Cl  0  0  0  0  0  0  0  0  0  0  0  0
  133.6783  125.7562  142.2935 C   0  0  0  0  0  0  0  0  0  0  0  0
  133.4568  128.5674  137.8958 C   0  0  0  0  0  0  0  0  0  0  0  0
  129.8931  132.5131  139.0367 C   0  0  0  0  0  0  0  0  0  0  0  0
  128.6574  132.6060  138.9137 O   0  0  0  0  0  0  0  0  0  0  0  0
  130.4389  132.1038  140.2386 O   0  0  0  0  0  0  0  0  0  0  0  0
  131.0069  130.8268  140.3215 C   0  0  0  0  0  0  0  0  0  0  0  0
  129.9765  129.7625  140.5783 C   0  0  0  0  0  0  0  0  0  0  0  0
  129.1343  129.9039  141.6669 C   0  0  0  0  0  0  0  0  0  0  0  0
  128.1955  128.9437  141.9154 C   0  0  0  0  0  0  0  0  0  0  0  0
  128.0506  127.8369  141.1260 C   0  0  0  0  0  0  0  0  0  0  0  0
  128.8931  127.7042  140.0448 C   0  0  0  0  0  0  0  0  0  0  0  0
  129.8474  128.6613  139.7758 C   0  0  0  0  0  0  0  0  0  0  0  0
  131.5236  134.7905  137.8498 H   0  0  0  0  0  0  0  0  0  0  0  0
  132.7598  133.5063  137.6911 H   0  0  0  0  0  0  0  0  0  0  0  0
  132.0503  133.8215  139.2830 H   0  0  0  0  0  0  0  0  0  0  0  0
  129.4586  132.1859  136.4362 H   0  0  0  0  0  0  0  0  0  0  0  0
  131.1200  132.6698  135.8715 H   0  0  0  0  0  0  0  0  0  0  0  0
  133.0031  131.3346  136.8545 H   0  0  0  0  0  0  0  0  0  0  0  0
  132.5139  128.9177  134.7304 H   0  0  0  0  0  0  0  0  0  0  0  0
  133.4349  126.6467  134.6144 H   0  0  0  0  0  0  0  0  0  0  0  0
  134.3825  125.5815  136.6072 H   0  0  0  0  0  0  0  0  0  0  0  0
  133.4595  124.4147  137.9931 H   0  0  0  0  0  0  0  0  0  0  0  0
  132.0764  124.1213  139.0552 H   0  0  0  0  0  0  0  0  0  0  0  0
  135.8121  123.6065  138.9214 H   0  0  0  0  0  0  0  0  0  0  0  0
  136.9106  121.6029  139.6575 H   0  0  0  0  0  0  0  0  0  0  0  0
  135.6056  119.7662  140.7255 H   0  0  0  0  0  0  0  0  0  0  0  0
  133.1696  119.9937  141.0349 H   0  0  0  0  0  0  0  0  0  0  0  0
  132.0586  122.0349  140.2840 H   0  0  0  0  0  0  0  0  0  0  0  0
  130.9070  125.5400  140.4209 H   0  0  0  0  0  0  0  0  0  0  0  0
  129.9267  125.9210  142.6674 H   0  0  0  0  0  0  0  0  0  0  0  0
  131.3578  126.1949  144.6632 H   0  0  0  0  0  0  0  0  0  0  0  0
  134.7559  125.7114  142.2011 H   0  0  0  0  0  0  0  0  0  0  0  0
  133.4852  129.0494  138.8503 H   0  0  0  0  0  0  0  0  0  0  0  0
  131.7721  130.7458  141.1329 H   0  0  0  0  0  0  0  0  0  0  0  0
  131.4865  130.5576  139.3427 H   0  0  0  0  0  0  0  0  0  0  0  0
  129.2429  130.7909  142.3074 H   0  0  0  0  0  0  0  0  0  0  0  0
  127.5275  129.0524  142.7758 H   0  0  0  0  0  0  0  0  0  0  0  0
  127.2947  127.0631  141.3253 H   0  0  0  0  0  0  0  0  0  0  0  0
  128.8217  126.8442  139.3848 H   0  0  0  0  0  0  0  0  0  0  0  0
  130.5194  128.5534  138.9149 H   0  0  0  0  0  0  0  0  0  0  0  0
  1  2  1  0
  2  3  1  0
  3  4  1  0
  4  5  2  0
  4  6  1  0
  6  7  1  0
  7  8  2  0
  8  9  1  0
  9 10  2  0
 10 11  1  0
 11 12  1  0
 12 13  2  0
 12 14  2  0
 12 15  1  0
 15 16  1  0
 16 17  1  0
 17 18  2  0
 18 19  1  0
 19 20  2  0
 20 21  1  0
 21 22  2  0
 15 23  1  0
 23 24  2  0
 24 25  1  0
 25 26  2  0
 26 27  1  0
 27 28  1  0
 27 29  2  0
 11 30  2  0
  2 31  1  0
 31 32  2  0
 31 33  1  0
 33 34  1  0
 34 35  1  0
 35 36  2  0
 36 37  1  0
 37 38  2  0
 38 39  1  0
 39 40  2  0
 30  7  1  0
 40 35  1  0
 22 17  1  0
 29 23  1  0
  1 41  1  0
  1 42  1  0
  1 43  1  0
  3 44  1  0
  3 45  1  0
  6 46  1  0
  8 47  1  0
  9 48  1  0
 10 49  1  0
 16 50  1  0
 16 51  1  0
 18 52  1  0
 19 53  1  0
 20 54  1  0
 21 55  1  0
 22 56  1  0
 24 57  1  0
 25 58  1  0
 26 59  1  0
 29 60  1  0
 30 61  1  0
 34 62  1  0
 34 63  1  0
 36 64  1  0
 37 65  1  0
 38 66  1  0
 39 67  1  0
 40 68  1  0
M  END
>  <docking_score>  (2) 
-7.4729999999999999

$$$$

     RDKit          3D

 68 71  0  0  0  0  0  0  0  0999 V2000
  143.9316  134.9912  133.6869 C   0  0  0  0  0  0  0  0  0  0  0  0
  144.2636  134.1841  134.8531 N   0  0  0  0  0  0  0  0  0  0  0  0
  143.6861  132.8834  135.0757 C   0  0  0  0  0  0  0  0  0  0  0  0
  142.2643  132.9848  135.5772 C   0  0  0  0  0  0  0  0  0  0  0  0
  142.0502  133.4411  136.7173 O   0  0  0  0  0  0  0  0  0  0  0  0
  141.2209  132.5598  134.7401 N   0  0  0  0  0  0  0  0  0  0  0  0
  139.8519  132.6023  135.0707 C   0  0  0  0  0  0  0  0  0  0  0  0
  138.9686  133.2118  134.1639 C   0  0  0  0  0  0  0  0  0  0  0  0
  137.6273  133.3032  134.4337 C   0  0  0  0  0  0  0  0  0  0  0  0
  137.1010  132.8055  135.5933 C   0  0  0  0  0  0  0  0  0  0  0  0
  137.9366  132.2016  136.5058 C   0  0  0  0  0  0  0  0  0  0  0  0
  137.2528  131.5849  137.9675 S   0  0  0  0  0  0  0  0  0  0  0  0
  135.8579  132.0783  138.2080 O   0  0  0  0  0  0  0  0  0  0  0  0
  137.1614  130.0758  137.8516 O   0  0  0  0  0  0  0  0  0  0  0  0
  138.3018  131.9474  139.2794 N   0  0  0  0  0  0  0  0  0  0  0  0
  139.5785  132.5481  138.9754 C   0  0  0  0  0  0  0  0  0  0  0  0
  140.3243  132.9959  140.1610 C   0  0  0  0  0  0  0  0  0  0  0  0
  139.9432  134.1539  140.7894 C   0  0  0  0  0  0  0  0  0  0  0  0
  140.6271  134.6074  141.9067 C   0  0  0  0  0  0  0  0  0  0  0  0
  141.6922  133.9039  142.3967 C   0  0  0  0  0  0  0  0  0  0  0  0
  142.1011  132.7274  141.7813 C   0  0  0  0  0  0  0  0  0  0  0  0
  141.3940  132.2959  140.6594 C   0  0  0  0  0  0  0  0  0  0  0  0
  137.9070  131.6586  140.6246 C   0  0  0  0  0  0  0  0  0  0  0  0
  136.9799  132.4321  141.2859 C   0  0  0  0  0  0  0  0  0  0  0  0
  136.6424  132.1006  142.5786 C   0  0  0  0  0  0  0  0  0  0  0  0
  137.1943  131.0224  143.2457 C   0  0  0  0  0  0  0  0  0  0  0  0
  138.1239  130.2378  142.5982 C   0  0  0  0  0  0  0  0  0  0  0  0
  138.8819  128.8517  143.3526 Cl  0  0  0  0  0  0  0  0  0  0  0  0
  138.4500  130.5818  141.3079 C   0  0  0  0  0  0  0  0  0  0  0  0
  139.3018  132.1155  136.2175 C   0  0  0  0  0  0  0  0  0  0  0  0
  145.1795  134.7063  135.7881 C   0  0  0  0  0  0  0  0  0  0  0  0
  146.1548  134.0294  136.1643 O   0  0  0  0  0  0  0  0  0  0  0  0
  144.9888  135.9804  136.2884 O   0  0  0  0  0  0  0  0  0  0  0  0
  143.8974  136.2172  137.1329 C   0  0  0  0  0  0  0  0  0  0  0  0
  144.3100  136.3385  138.5735 C   0  0  0  0  0  0  0  0  0  0  0  0
  145.6470  136.5429  138.8654 C   0  0  0  0  0  0  0  0  0  0  0  0
  146.0378  136.6515  140.1695 C   0  0  0  0  0  0  0  0  0  0  0  0
  145.1551  136.5662  141.2100 C   0  0  0  0  0  0  0  0  0  0  0  0
  143.8265  136.3627  140.9103 C   0  0  0  0  0  0  0  0  0  0  0  0
  143.4106  136.2502  139.6013 C   0  0  0  0  0  0  0  0  0  0  0  0
  143.5151  135.9649  133.9825 H   0  0  0  0  0  0  0  0  0  0  0  0
  143.2373  134.4973  132.9969 H   0  0  0  0  0  0  0  0  0  0  0  0
  144.8725  135.1714  133.0892 H   0  0  0  0  0  0  0  0  0  0  0  0
  143.6525  132.3184  134.1306 H   0  0  0  0  0  0  0  0  0  0  0  0
  144.2266  132.3118  135.8579 H   0  0  0  0  0  0  0  0  0  0  0  0
  141.5214  132.1782  133.7784 H   0  0  0  0  0  0  0  0  0  0  0  0
  139.3848  133.6041  133.2496 H   0  0  0  0  0  0  0  0  0  0  0  0
  136.9811  133.7805  133.7078 H   0  0  0  0  0  0  0  0  0  0  0  0
  136.0384  132.8880  135.7859 H   0  0  0  0  0  0  0  0  0  0  0  0
  139.4450  133.4014  138.2462 H   0  0  0  0  0  0  0  0  0  0  0  0
  140.1705  131.7939  138.3772 H   0  0  0  0  0  0  0  0  0  0  0  0
  139.0969  134.7516  140.4342 H   0  0  0  0  0  0  0  0  0  0  0  0
  140.2805  135.5377  142.3691 H   0  0  0  0  0  0  0  0  0  0  0  0
  142.2235  134.2589  143.2673 H   0  0  0  0  0  0  0  0  0  0  0  0
  142.9467  132.1711  142.1723 H   0  0  0  0  0  0  0  0  0  0  0  0
  141.7377  131.3769  140.2045 H   0  0  0  0  0  0  0  0  0  0  0  0
  136.5389  133.2827  140.7722 H   0  0  0  0  0  0  0  0  0  0  0  0
  135.9062  132.7148  143.1025 H   0  0  0  0  0  0  0  0  0  0  0  0
  136.9087  130.7817  144.2705 H   0  0  0  0  0  0  0  0  0  0  0  0
  139.1810  129.9613  140.8055 H   0  0  0  0  0  0  0  0  0  0  0  0
  139.9008  131.6440  136.9679 H   0  0  0  0  0  0  0  0  0  0  0  0
  143.1259  135.4096  137.0790 H   0  0  0  0  0  0  0  0  0  0  0  0
  143.4160  137.1967  136.8696 H   0  0  0  0  0  0  0  0  0  0  0  0
  146.3644  136.6131  138.0353 H   0  0  0  0  0  0  0  0  0  0  0  0
  147.0948  136.8132  140.4040 H   0  0  0  0  0  0  0  0  0  0  0  0
  145.4689  136.6538  142.2605 H   0  0  0  0  0  0  0  0  0  0  0  0
  143.0826  136.2869  141.6985 H   0  0  0  0  0  0  0  0  0  0  0  0
  142.3516  136.0863  139.3640 H   0  0  0  0  0  0  0  0  0  0  0  0
  1  2  1  0
  2  3  1  0
  3  4  1  0
  4  5  2  0
  4  6  1  0
  6  7  1  0
  7  8  2  0
  8  9  1  0
  9 10  2  0
 10 11  1  0
 11 12  1  0
 12 13  2  0
 12 14  2  0
 12 15  1  0
 15 16  1  0
 16 17  1  0
 17 18  2  0
 18 19  1  0
 19 20  2  0
 20 21  1  0
 21 22  2  0
 15 23  1  0
 23 24  2  0
 24 25  1  0
 25 26  2  0
 26 27  1  0
 27 28  1  0
 27 29  2  0
 11 30  2  0
  2 31  1  0
 31 32  2  0
 31 33  1  0
 33 34  1  0
 34 35  1  0
 35 36  2  0
 36 37  1  0
 37 38  2  0
 38 39  1  0
 39 40  2  0
 30  7  1  0
 40 35  1  0
 22 17  1  0
 29 23  1  0
  1 41  1  0
  1 42  1  0
  1 43  1  0
  3 44  1  0
  3 45  1  0
  6 46  1  0
  8 47  1  0
  9 48  1  0
 10 49  1  0
 16 50  1  0
 16 51  1  0
 18 52  1  0
 19 53  1  0
 20 54  1  0
 21 55  1  0
 22 56  1  0
 24 57  1  0
 25 58  1  0
 26 59  1  0
 29 60  1  0
 30 61  1  0
 34 62  1  0
 34 63  1  0
 36 64  1  0
 37 65  1  0
 38 66  1  0
 39 67  1  0
 40 68  1  0
M  END
>  <docking_score>  (3) 
-7.2069999999999999

$$$$
