
     RDKit          3D

 75 78  0  0  0  0  0  0  0  0999 V2000
  134.8914  128.8104  139.4774 C   0  0  0  0  0  0  0  0  0  0  0  0
  134.7897  127.3281  139.6157 C   0  0  0  0  0  0  0  0  0  0  0  0
  133.8035  126.6968  139.0007 C   0  0  0  0  0  0  0  0  0  0  0  0
  132.8377  127.4718  138.1931 C   0  0  0  0  0  0  0  0  0  0  0  0
  132.9965  127.4707  136.9261 O   0  0  0  0  0  0  0  0  0  0  0  0
  131.8005  128.1820  138.6823 O   0  0  0  0  0  0  0  0  0  0  0  0
  130.5101  128.2756  138.1743 C   0  0  0  0  0  0  0  0  0  0  0  0
  129.5328  128.0635  139.3153 C   0  0  0  0  0  0  0  0  0  0  0  0
  130.2684  129.6990  137.6706 C   0  0  0  0  0  0  0  0  0  0  0  0
  133.6116  125.2269  139.1336 C   0  0  2  0  0  0  0  0  0  0  0  0
  132.4194  125.0892  140.0520 C   0  0  0  0  0  0  0  0  0  0  0  0
  131.1951  124.6628  139.6340 C   0  0  0  0  0  0  0  0  0  0  0  0
  130.1366  124.5658  140.5245 C   0  0  0  0  0  0  0  0  0  0  0  0
  130.2753  124.8916  141.8499 C   0  0  0  0  0  0  0  0  0  0  0  0
  131.5146  125.3250  142.2806 C   0  0  0  0  0  0  0  0  0  0  0  0
  131.7076  125.7464  143.9775 Cl  0  0  0  0  0  0  0  0  0  0  0  0
  132.5812  125.4234  141.3870 C   0  0  0  0  0  0  0  0  0  0  0  0
  134.7052  124.5801  139.8075 N   0  0  0  0  0  0  0  0  0  0  0  0
  134.7846  123.1257  139.8169 C   0  0  0  0  0  0  0  0  0  0  0  0
  136.1400  122.5865  140.1208 C   0  0  0  0  0  0  0  0  0  0  0  0
  135.9518  121.5394  141.2198 C   0  0  0  0  0  0  0  0  0  0  0  0
  135.5239  120.2510  140.5720 N   0  0  0  0  0  0  0  0  0  0  0  0
  134.1178  120.0370  140.4712 C   0  0  0  0  0  0  0  0  0  0  0  0
  136.5108  119.3839  140.1296 C   0  0  0  0  0  0  0  0  0  0  0  0
  137.4484  119.1685  141.0191 O   0  0  0  0  0  0  0  0  0  0  0  0
  136.6951  118.6832  138.8852 C   0  0  0  0  0  0  0  0  0  0  0  0
  137.8884  118.2364  138.3751 C   0  0  0  0  0  0  0  0  0  0  0  0
  137.9603  117.5551  137.1556 C   0  0  0  0  0  0  0  0  0  0  0  0
  136.8396  117.3031  136.4147 C   0  0  0  0  0  0  0  0  0  0  0  0
  136.8780  116.6320  135.2055 O   0  0  0  0  0  0  0  0  0  0  0  0
  137.2937  117.2319  134.0359 C   0  0  0  0  0  0  0  0  0  0  0  0
  138.6105  117.6054  133.8907 C   0  0  0  0  0  0  0  0  0  0  0  0
  139.0536  118.2156  132.7116 C   0  0  0  0  0  0  0  0  0  0  0  0
  138.1741  118.4508  131.6776 C   0  0  0  0  0  0  0  0  0  0  0  0
  136.8563  118.0752  131.8272 C   0  0  0  0  0  0  0  0  0  0  0  0
  136.4197  117.4643  133.0114 C   0  0  0  0  0  0  0  0  0  0  0  0
  135.6430  117.7480  136.9203 C   0  0  0  0  0  0  0  0  0  0  0  0
  135.5428  118.4190  138.1139 C   0  0  0  0  0  0  0  0  0  0  0  0
  135.7572  125.2626  140.4763 C   0  0  0  0  0  0  0  0  0  0  0  0
  136.6292  124.6065  141.1446 O   0  0  0  0  0  0  0  0  0  0  0  0
  135.7998  126.6704  140.3747 N   0  0  0  0  0  0  0  0  0  0  0  0
  134.1785  129.3366  140.1270 H   0  0  0  0  0  0  0  0  0  0  0  0
  134.8244  129.1629  138.4443 H   0  0  0  0  0  0  0  0  0  0  0  0
  135.9022  129.1018  139.8910 H   0  0  0  0  0  0  0  0  0  0  0  0
  130.2924  127.5708  137.3508 H   0  0  0  0  0  0  0  0  0  0  0  0
  129.0929  127.0439  139.2773 H   0  0  0  0  0  0  0  0  0  0  0  0
  129.9758  128.2901  140.3027 H   0  0  0  0  0  0  0  0  0  0  0  0
  128.6920  128.7709  139.1669 H   0  0  0  0  0  0  0  0  0  0  0  0
  130.0273  129.6560  136.5864 H   0  0  0  0  0  0  0  0  0  0  0  0
  129.3978  130.1616  138.1721 H   0  0  0  0  0  0  0  0  0  0  0  0
  131.1770  130.3241  137.7807 H   0  0  0  0  0  0  0  0  0  0  0  0
  133.3956  124.7561  138.1678 H   0  0  0  0  0  0  0  0  0  0  0  0
  131.0473  124.3964  138.5979 H   0  0  0  0  0  0  0  0  0  0  0  0
  129.1542  124.2255  140.1973 H   0  0  0  0  0  0  0  0  0  0  0  0
  129.4482  124.8188  142.5586 H   0  0  0  0  0  0  0  0  0  0  0  0
  133.5413  125.7666  141.7551 H   0  0  0  0  0  0  0  0  0  0  0  0
  134.0766  122.7870  140.6262 H   0  0  0  0  0  0  0  0  0  0  0  0
  134.3702  122.7670  138.8548 H   0  0  0  0  0  0  0  0  0  0  0  0
  136.7711  123.3816  140.6108 H   0  0  0  0  0  0  0  0  0  0  0  0
  136.7055  122.2030  139.2791 H   0  0  0  0  0  0  0  0  0  0  0  0
  135.1718  121.8248  141.9400 H   0  0  0  0  0  0  0  0  0  0  0  0
  136.8980  121.2930  141.7277 H   0  0  0  0  0  0  0  0  0  0  0  0
  133.6756  120.7563  139.7743 H   0  0  0  0  0  0  0  0  0  0  0  0
  133.9304  118.9743  140.0558 H   0  0  0  0  0  0  0  0  0  0  0  0
  133.6315  120.0624  141.4541 H   0  0  0  0  0  0  0  0  0  0  0  0
  138.8081  118.3999  138.8981 H   0  0  0  0  0  0  0  0  0  0  0  0
  138.9082  117.2196  136.7852 H   0  0  0  0  0  0  0  0  0  0  0  0
  139.3590  117.4470  134.6731 H   0  0  0  0  0  0  0  0  0  0  0  0
  140.0809  118.5190  132.5705 H   0  0  0  0  0  0  0  0  0  0  0  0
  138.5208  118.9281  130.7545 H   0  0  0  0  0  0  0  0  0  0  0  0
  136.1853  118.2702  131.0019 H   0  0  0  0  0  0  0  0  0  0  0  0
  135.3815  117.1747  133.1155 H   0  0  0  0  0  0  0  0  0  0  0  0
  134.7369  117.5555  136.3411 H   0  0  0  0  0  0  0  0  0  0  0  0
  134.5704  118.7493  138.4687 H   0  0  0  0  0  0  0  0  0  0  0  0
  136.5800  127.1989  140.8648 H   0  0  0  0  0  0  0  0  0  0  0  0
  1  2  1  0
  2  3  2  0
  3  4  1  0
  4  5  2  0
  4  6  1  0
  6  7  1  0
  7  8  1  0
  7  9  1  0
  3 10  1  0
 10 11  1  0
 11 12  2  0
 12 13  1  0
 13 14  2  0
 14 15  1  0
 15 16  1  0
 15 17  2  0
 10 18  1  0
 18 19  1  0
 19 20  1  0
 20 21  1  0
 21 22  1  0
 22 23  1  0
 22 24  1  0
 24 25  2  0
 24 26  1  0
 26 27  2  0
 27 28  1  0
 28 29  2  0
 29 30  1  0
 30 31  1  0
 31 32  2  0
 32 33  1  0
 33 34  2  0
 34 35  1  0
 35 36  2  0
 29 37  1  0
 37 38  2  0
 18 39  1  0
 39 40  2  0
 39 41  1  0
 41  2  1  0
 17 11  1  0
 38 26  1  0
 36 31  1  0
  1 42  1  0
  1 43  1  0
  1 44  1  0
  7 45  1  0
  8 46  1  0
  8 47  1  0
  8 48  1  0
  9 49  1  0
  9 50  1  0
  9 51  1  0
 10 52  1  6
 12 53  1  0
 13 54  1  0
 14 55  1  0
 17 56  1  0
 19 57  1  0
 19 58  1  0
 20 59  1  0
 20 60  1  0
 21 61  1  0
 21 62  1  0
 23 63  1  0
 23 64  1  0
 23 65  1  0
 27 66  1  0
 28 67  1  0
 32 68  1  0
 33 69  1  0
 34 70  1  0
 35 71  1  0
 36 72  1  0
 37 73  1  0
 38 74  1  0
 41 75  1  0
M  END
>  <docking_score>  (1) 
-8.6880000000000006

$$$$

     RDKit          3D

 75 78  0  0  0  0  0  0  0  0999 V2000
  145.2351  135.6125  135.0135 C   0  0  0  0  0  0  0  0  0  0  0  0
  144.1307  135.1329  135.8949 C   0  0  0  0  0  0  0  0  0  0  0  0
  143.8955  133.8337  135.9723 C   0  0  0  0  0  0  0  0  0  0  0  0
  144.7319  132.8970  135.1922 C   0  0  0  0  0  0  0  0  0  0  0  0
  144.3486  132.6137  134.0076 O   0  0  0  0  0  0  0  0  0  0  0  0
  145.8684  132.3147  135.6267 O   0  0  0  0  0  0  0  0  0  0  0  0
  147.0874  132.2150  134.9662 C   0  0  0  0  0  0  0  0  0  0  0  0
  148.1029  133.0610  135.7110 C   0  0  0  0  0  0  0  0  0  0  0  0
  147.5923  130.7743  135.0542 C   0  0  0  0  0  0  0  0  0  0  0  0
  142.7801  133.2875  136.7924 C   0  0  2  0  0  0  0  0  0  0  0  0
  141.7379  132.8787  135.7773 C   0  0  0  0  0  0  0  0  0  0  0  0
  141.1513  131.6494  135.7571 C   0  0  0  0  0  0  0  0  0  0  0  0
  140.2066  131.3311  134.7932 C   0  0  0  0  0  0  0  0  0  0  0  0
  139.8263  132.2303  133.8294 C   0  0  0  0  0  0  0  0  0  0  0  0
  140.4174  133.4791  133.8442 C   0  0  0  0  0  0  0  0  0  0  0  0
  139.9398  134.6428  132.6145 Cl  0  0  0  0  0  0  0  0  0  0  0  0
  141.3680  133.8021  134.8127 C   0  0  0  0  0  0  0  0  0  0  0  0
  142.1553  134.2846  137.6194 N   0  0  0  0  0  0  0  0  0  0  0  0
  141.2063  133.8756  138.6459 C   0  0  0  0  0  0  0  0  0  0  0  0
  141.7446  132.8852  139.6204 C   0  0  0  0  0  0  0  0  0  0  0  0
  141.6809  133.5533  140.9949 C   0  0  0  0  0  0  0  0  0  0  0  0
  140.4444  133.0636  141.6978 N   0  0  0  0  0  0  0  0  0  0  0  0
  140.6204  131.9534  142.5750 C   0  0  0  0  0  0  0  0  0  0  0  0
  139.2482  133.7164  141.4445 C   0  0  0  0  0  0  0  0  0  0  0  0
  139.2545  134.9729  141.8164 O   0  0  0  0  0  0  0  0  0  0  0  0
  138.0114  133.2740  140.8547 C   0  0  0  0  0  0  0  0  0  0  0  0
  137.8763  132.3368  139.8610 C   0  0  0  0  0  0  0  0  0  0  0  0
  136.6235  131.9685  139.3599 C   0  0  0  0  0  0  0  0  0  0  0  0
  135.4728  132.5286  139.8402 C   0  0  0  0  0  0  0  0  0  0  0  0
  134.2194  132.1854  139.3655 O   0  0  0  0  0  0  0  0  0  0  0  0
  133.7232  132.6580  138.1692 C   0  0  0  0  0  0  0  0  0  0  0  0
  134.0775  133.9139  137.7315 C   0  0  0  0  0  0  0  0  0  0  0  0
  133.5854  134.4129  136.5199 C   0  0  0  0  0  0  0  0  0  0  0  0
  132.7370  133.6503  135.7474 C   0  0  0  0  0  0  0  0  0  0  0  0
  132.3848  132.3932  136.1895 C   0  0  0  0  0  0  0  0  0  0  0  0
  132.8818  131.9000  137.4044 C   0  0  0  0  0  0  0  0  0  0  0  0
  135.6021  133.4669  140.8343 C   0  0  0  0  0  0  0  0  0  0  0  0
  136.8183  133.8475  141.3450 C   0  0  0  0  0  0  0  0  0  0  0  0
  142.4032  135.6809  137.5255 C   0  0  0  0  0  0  0  0  0  0  0  0
  141.7198  136.5058  138.2255 O   0  0  0  0  0  0  0  0  0  0  0  0
  143.4174  136.1131  136.6430 N   0  0  0  0  0  0  0  0  0  0  0  0
  145.8608  134.7868  134.6477 H   0  0  0  0  0  0  0  0  0  0  0  0
  145.8422  136.4058  135.4586 H   0  0  0  0  0  0  0  0  0  0  0  0
  144.7455  136.0173  134.0785 H   0  0  0  0  0  0  0  0  0  0  0  0
  147.0541  132.5101  133.9013 H   0  0  0  0  0  0  0  0  0  0  0  0
  149.0173  133.2149  135.0989 H   0  0  0  0  0  0  0  0  0  0  0  0
  147.6781  134.0153  136.0734 H   0  0  0  0  0  0  0  0  0  0  0  0
  148.4201  132.4870  136.6051 H   0  0  0  0  0  0  0  0  0  0  0  0
  148.5379  130.6933  134.4756 H   0  0  0  0  0  0  0  0  0  0  0  0
  147.8323  130.4944  136.0970 H   0  0  0  0  0  0  0  0  0  0  0  0
  146.8689  130.0665  134.6024 H   0  0  0  0  0  0  0  0  0  0  0  0
  143.0945  132.4155  137.3770 H   0  0  0  0  0  0  0  0  0  0  0  0
  141.4244  130.9150  136.5002 H   0  0  0  0  0  0  0  0  0  0  0  0
  139.7332  130.3496  134.7707 H   0  0  0  0  0  0  0  0  0  0  0  0
  139.0838  131.9892  133.0666 H   0  0  0  0  0  0  0  0  0  0  0  0
  141.8139  134.7901  134.7981 H   0  0  0  0  0  0  0  0  0  0  0  0
  140.9382  134.8168  139.2056 H   0  0  0  0  0  0  0  0  0  0  0  0
  140.2884  133.5349  138.1289 H   0  0  0  0  0  0  0  0  0  0  0  0
  142.8476  132.7318  139.4458 H   0  0  0  0  0  0  0  0  0  0  0  0
  141.2809  131.9053  139.6169 H   0  0  0  0  0  0  0  0  0  0  0  0
  141.6121  134.6483  140.9247 H   0  0  0  0  0  0  0  0  0  0  0  0
  142.5119  133.2432  141.6484 H   0  0  0  0  0  0  0  0  0  0  0  0
  139.7522  131.8516  143.2341 H   0  0  0  0  0  0  0  0  0  0  0  0
  140.7058  130.9883  141.9438 H   0  0  0  0  0  0  0  0  0  0  0  0
  141.5593  132.0251  143.1377 H   0  0  0  0  0  0  0  0  0  0  0  0
  138.7331  131.8577  139.4340 H   0  0  0  0  0  0  0  0  0  0  0  0
  136.5527  131.2334  138.5834 H   0  0  0  0  0  0  0  0  0  0  0  0
  134.7468  134.5695  138.2971 H   0  0  0  0  0  0  0  0  0  0  0  0
  133.8467  135.3946  136.1523 H   0  0  0  0  0  0  0  0  0  0  0  0
  132.3519  134.0405  134.7989 H   0  0  0  0  0  0  0  0  0  0  0  0
  131.7178  131.8138  135.5658 H   0  0  0  0  0  0  0  0  0  0  0  0
  132.5965  130.9107  137.7397 H   0  0  0  0  0  0  0  0  0  0  0  0
  134.6927  133.9252  141.2300 H   0  0  0  0  0  0  0  0  0  0  0  0
  136.8645  134.5949  142.1322 H   0  0  0  0  0  0  0  0  0  0  0  0
  143.6202  137.1524  136.5608 H   0  0  0  0  0  0  0  0  0  0  0  0
  1  2  1  0
  2  3  2  0
  3  4  1  0
  4  5  2  0
  4  6  1  0
  6  7  1  0
  7  8  1  0
  7  9  1  0
  3 10  1  0
 10 11  1  0
 11 12  2  0
 12 13  1  0
 13 14  2  0
 14 15  1  0
 15 16  1  0
 15 17  2  0
 10 18  1  0
 18 19  1  0
 19 20  1  0
 20 21  1  0
 21 22  1  0
 22 23  1  0
 22 24  1  0
 24 25  2  0
 24 26  1  0
 26 27  2  0
 27 28  1  0
 28 29  2  0
 29 30  1  0
 30 31  1  0
 31 32  2  0
 32 33  1  0
 33 34  2  0
 34 35  1  0
 35 36  2  0
 29 37  1  0
 37 38  2  0
 18 39  1  0
 39 40  2  0
 39 41  1  0
 41  2  1  0
 17 11  1  0
 38 26  1  0
 36 31  1  0
  1 42  1  0
  1 43  1  0
  1 44  1  0
  7 45  1  0
  8 46  1  0
  8 47  1  0
  8 48  1  0
  9 49  1  0
  9 50  1  0
  9 51  1  0
 10 52  1  1
 12 53  1  0
 13 54  1  0
 14 55  1  0
 17 56  1  0
 19 57  1  0
 19 58  1  0
 20 59  1  0
 20 60  1  0
 21 61  1  0
 21 62  1  0
 23 63  1  0
 23 64  1  0
 23 65  1  0
 27 66  1  0
 28 67  1  0
 32 68  1  0
 33 69  1  0
 34 70  1  0
 35 71  1  0
 36 72  1  0
 37 73  1  0
 38 74  1  0
 41 75  1  0
M  END
>  <docking_score>  (2) 
-8.4049999999999994

$$$$

     RDKit          3D

 75 78  0  0  0  0  0  0  0  0999 V2000
  132.8721  134.1584  137.9070 C   0  0  0  0  0  0  0  0  0  0  0  0
  132.1886  132.8614  138.1850 C   0  0  0  0  0  0  0  0  0  0  0  0
  130.8665  132.8287  138.2023 C   0  0  0  0  0  0  0  0  0  0  0  0
  130.1063  134.0696  137.9420 C   0  0  0  0  0  0  0  0  0  0  0  0
  129.5803  134.2052  136.7864 O   0  0  0  0  0  0  0  0  0  0  0  0
  129.9210  135.0735  138.8237 O   0  0  0  0  0  0  0  0  0  0  0  0
  128.7463  135.4417  139.4692 C   0  0  0  0  0  0  0  0  0  0  0  0
  129.0377  135.5677  140.9527 C   0  0  0  0  0  0  0  0  0  0  0  0
  128.3294  136.8364  139.0009 C   0  0  0  0  0  0  0  0  0  0  0  0
  130.1183  131.5821  138.5205 C   0  0  2  0  0  0  0  0  0  0  0  0
  129.6035  131.8054  139.9237 C   0  0  0  0  0  0  0  0  0  0  0  0
  128.2796  131.8207  140.2440 C   0  0  0  0  0  0  0  0  0  0  0  0
  127.8693  132.0398  141.5504 C   0  0  0  0  0  0  0  0  0  0  0  0
  128.7690  132.2482  142.5650 C   0  0  0  0  0  0  0  0  0  0  0  0
  130.1135  132.2339  142.2469 C   0  0  0  0  0  0  0  0  0  0  0  0
  131.2789  132.4996  143.5375 Cl  0  0  0  0  0  0  0  0  0  0  0  0
  130.5291  132.0136  140.9336 C   0  0  0  0  0  0  0  0  0  0  0  0
  130.9682  130.4240  138.5920 N   0  0  0  0  0  0  0  0  0  0  0  0
  130.3711  129.0975  138.6654 C   0  0  0  0  0  0  0  0  0  0  0  0
  129.8693  128.7237  140.0177 C   0  0  0  0  0  0  0  0  0  0  0  0
  130.9263  127.8044  140.6318 C   0  0  0  0  0  0  0  0  0  0  0  0
  130.3707  126.4070  140.6650 N   0  0  0  0  0  0  0  0  0  0  0  0
  129.2925  126.1827  141.5707 C   0  0  0  0  0  0  0  0  0  0  0  0
  130.9381  125.4592  139.8277 C   0  0  0  0  0  0  0  0  0  0  0  0
  130.1016  124.9880  138.9360 O   0  0  0  0  0  0  0  0  0  0  0  0
  132.2637  124.9013  139.7573 C   0  0  0  0  0  0  0  0  0  0  0  0
  133.3135  125.3951  139.0240 C   0  0  0  0  0  0  0  0  0  0  0  0
  134.5705  124.7815  139.0298 C   0  0  0  0  0  0  0  0  0  0  0  0
  134.8097  123.6574  139.7699 C   0  0  0  0  0  0  0  0  0  0  0  0
  136.0412  123.0278  139.7966 O   0  0  0  0  0  0  0  0  0  0  0  0
  136.1734  121.6573  139.8674 C   0  0  0  0  0  0  0  0  0  0  0  0
  137.2979  121.1085  140.4410 C   0  0  0  0  0  0  0  0  0  0  0  0
  137.4520  119.7199  140.5233 C   0  0  0  0  0  0  0  0  0  0  0  0
  136.4766  118.8816  140.0293 C   0  0  0  0  0  0  0  0  0  0  0  0
  135.3522  119.4354  139.4557 C   0  0  0  0  0  0  0  0  0  0  0  0
  135.2048  120.8276  139.3768 C   0  0  0  0  0  0  0  0  0  0  0  0
  133.7627  123.1590  140.5055 C   0  0  0  0  0  0  0  0  0  0  0  0
  132.5191  123.7403  140.5186 C   0  0  0  0  0  0  0  0  0  0  0  0
  132.3888  130.4647  138.5836 C   0  0  0  0  0  0  0  0  0  0  0  0
  133.0657  129.3937  138.7633 O   0  0  0  0  0  0  0  0  0  0  0  0
  133.0119  131.7143  138.3725 N   0  0  0  0  0  0  0  0  0  0  0  0
  133.7747  134.0275  137.2944 H   0  0  0  0  0  0  0  0  0  0  0  0
  133.0811  134.7482  138.8039 H   0  0  0  0  0  0  0  0  0  0  0  0
  132.1760  134.7510  137.2421 H   0  0  0  0  0  0  0  0  0  0  0  0
  127.9001  134.7495  139.3051 H   0  0  0  0  0  0  0  0  0  0  0  0
  128.1739  136.0134  141.4909 H   0  0  0  0  0  0  0  0  0  0  0  0
  129.3634  134.6129  141.4051 H   0  0  0  0  0  0  0  0  0  0  0  0
  129.8773  136.2831  141.0656 H   0  0  0  0  0  0  0  0  0  0  0  0
  128.2136  136.8201  137.8955 H   0  0  0  0  0  0  0  0  0  0  0  0
  127.3472  137.1252  139.4195 H   0  0  0  0  0  0  0  0  0  0  0  0
  129.1070  137.5895  139.2388 H   0  0  0  0  0  0  0  0  0  0  0  0
  129.2780  131.4260  137.8347 H   0  0  0  0  0  0  0  0  0  0  0  0
  127.5415  131.6598  139.4724 H   0  0  0  0  0  0  0  0  0  0  0  0
  126.8119  132.0535  141.8141 H   0  0  0  0  0  0  0  0  0  0  0  0
  128.4559  132.4216  143.5962 H   0  0  0  0  0  0  0  0  0  0  0  0
  131.5910  132.0082  140.7156 H   0  0  0  0  0  0  0  0  0  0  0  0
  129.4970  129.1169  137.9536 H   0  0  0  0  0  0  0  0  0  0  0  0
  131.1078  128.3815  138.2524 H   0  0  0  0  0  0  0  0  0  0  0  0
  128.9599  128.0642  139.9235 H   0  0  0  0  0  0  0  0  0  0  0  0
  129.6034  129.5430  140.6760 H   0  0  0  0  0  0  0  0  0  0  0  0
  131.1775  128.0873  141.6641 H   0  0  0  0  0  0  0  0  0  0  0  0
  131.8287  127.7287  140.0043 H   0  0  0  0  0  0  0  0  0  0  0  0
  128.3457  126.1259  141.0239 H   0  0  0  0  0  0  0  0  0  0  0  0
  129.4583  125.1711  142.1057 H   0  0  0  0  0  0  0  0  0  0  0  0
  129.2653  126.9386  142.3651 H   0  0  0  0  0  0  0  0  0  0  0  0
  133.2003  126.2703  138.4180 H   0  0  0  0  0  0  0  0  0  0  0  0
  135.3693  125.1924  138.4456 H   0  0  0  0  0  0  0  0  0  0  0  0
  138.1086  121.7180  140.8519 H   0  0  0  0  0  0  0  0  0  0  0  0
  138.3238  119.2621  140.9680 H   0  0  0  0  0  0  0  0  0  0  0  0
  136.5970  117.7947  140.0939 H   0  0  0  0  0  0  0  0  0  0  0  0
  134.6008  118.7571  139.0752 H   0  0  0  0  0  0  0  0  0  0  0  0
  134.3164  121.2490  138.9232 H   0  0  0  0  0  0  0  0  0  0  0  0
  133.9359  122.2609  141.1029 H   0  0  0  0  0  0  0  0  0  0  0  0
  131.7249  123.3051  141.1190 H   0  0  0  0  0  0  0  0  0  0  0  0
  134.0727  131.7652  138.3596 H   0  0  0  0  0  0  0  0  0  0  0  0
  1  2  1  0
  2  3  2  0
  3  4  1  0
  4  5  2  0
  4  6  1  0
  6  7  1  0
  7  8  1  0
  7  9  1  0
  3 10  1  0
 10 11  1  0
 11 12  2  0
 12 13  1  0
 13 14  2  0
 14 15  1  0
 15 16  1  0
 15 17  2  0
 10 18  1  0
 18 19  1  0
 19 20  1  0
 20 21  1  0
 21 22  1  0
 22 23  1  0
 22 24  1  0
 24 25  2  0
 24 26  1  0
 26 27  2  0
 27 28  1  0
 28 29  2  0
 29 30  1  0
 30 31  1  0
 31 32  2  0
 32 33  1  0
 33 34  2  0
 34 35  1  0
 35 36  2  0
 29 37  1  0
 37 38  2  0
 18 39  1  0
 39 40  2  0
 39 41  1  0
 41  2  1  0
 17 11  1  0
 38 26  1  0
 36 31  1  0
  1 42  1  0
  1 43  1  0
  1 44  1  0
  7 45  1  0
  8 46  1  0
  8 47  1  0
  8 48  1  0
  9 49  1  0
  9 50  1  0
  9 51  1  0
 10 52  1  6
 12 53  1  0
 13 54  1  0
 14 55  1  0
 17 56  1  0
 19 57  1  0
 19 58  1  0
 20 59  1  0
 20 60  1  0
 21 61  1  0
 21 62  1  0
 23 63  1  0
 23 64  1  0
 23 65  1  0
 27 66  1  0
 28 67  1  0
 32 68  1  0
 33 69  1  0
 34 70  1  0
 35 71  1  0
 36 72  1  0
 37 73  1  0
 38 74  1  0
 41 75  1  0
M  END
>  <docking_score>  (3) 
-8.1809999999999992

$$$$
