
     RDKit          3D

 60 62  0  0  0  0  0  0  0  0999 V2000
  145.9683  136.3515  136.3094 C   0  0  0  0  0  0  0  0  0  0  0  0
  146.5038  135.9505  137.6455 C   0  0  0  0  0  0  0  0  0  0  0  0
  147.1425  137.0866  138.3986 C   0  0  2  0  0  0  0  0  0  0  0  0
  148.5648  136.6668  138.7433 C   0  0  0  0  0  0  0  0  0  0  0  0
  146.4329  137.4765  139.6546 C   0  0  2  0  0  0  0  0  0  0  0  0
  145.1989  136.7252  139.7090 N   0  0  0  0  0  0  0  0  0  0  0  0
  144.5324  136.3840  140.9186 C   0  0  0  0  0  0  0  0  0  0  0  0
  145.0787  136.7769  141.9929 O   0  0  0  0  0  0  0  0  0  0  0  0
  143.3228  135.6441  140.9136 N   0  0  0  0  0  0  0  0  0  0  0  0
  143.2318  134.4257  141.6862 C   0  0  0  0  0  0  0  0  0  0  0  0
  141.7365  134.2157  141.9411 C   0  0  0  0  0  0  0  0  0  0  0  0
  140.9682  134.0210  140.6667 C   0  0  0  0  0  0  0  0  0  0  0  0
  141.3242  135.0256  139.6357 C   0  0  0  0  0  0  0  0  0  0  0  0
  142.2249  136.1422  140.1314 C   0  0  0  0  0  0  0  0  0  0  0  0
  139.5261  133.8695  140.9733 C   0  0  0  0  0  0  0  0  0  0  0  0
  138.5070  134.6086  141.1230 O   0  0  0  0  0  0  0  0  0  0  0  0
  139.7281  132.4638  141.0436 N   0  0  0  0  0  0  0  0  0  0  0  0
  139.0844  131.3047  141.6311 C   0  0  0  0  0  0  0  0  0  0  0  0
  140.9292  132.5844  140.2410 C   0  0  1  0  0  0  0  0  0  0  0  0
  140.7058  132.3074  138.8258 C   0  0  0  0  0  0  0  0  0  0  0  0
  141.7749  132.0353  137.9974 C   0  0  0  0  0  0  0  0  0  0  0  0
  141.5918  131.7666  136.6379 C   0  0  0  0  0  0  0  0  0  0  0  0
  140.3255  131.7673  136.0889 C   0  0  0  0  0  0  0  0  0  0  0  0
  140.0854  131.4283  134.3681 Cl  0  0  0  0  0  0  0  0  0  0  0  0
  139.2629  132.0359  136.9039 C   0  0  0  0  0  0  0  0  0  0  0  0
  139.4572  132.2995  138.2432 C   0  0  0  0  0  0  0  0  0  0  0  0
  146.2219  138.9248  139.7236 C   0  0  0  0  0  0  0  0  0  0  0  0
  145.3546  139.4267  138.9304 O   0  0  0  0  0  0  0  0  0  0  0  0
  146.8986  139.7635  140.5858 O   0  0  0  0  0  0  0  0  0  0  0  0
  147.8428  139.2024  141.4796 C   0  0  0  0  0  0  0  0  0  0  0  0
  146.5591  137.2111  135.8865 H   0  0  0  0  0  0  0  0  0  0  0  0
  144.9182  136.7201  136.3558 H   0  0  0  0  0  0  0  0  0  0  0  0
  145.9687  135.5249  135.5679 H   0  0  0  0  0  0  0  0  0  0  0  0
  145.7873  135.3827  138.2721 H   0  0  0  0  0  0  0  0  0  0  0  0
  147.3357  135.2138  137.4403 H   0  0  0  0  0  0  0  0  0  0  0  0
  147.2425  137.9724  137.7063 H   0  0  0  0  0  0  0  0  0  0  0  0
  149.2543  137.5395  138.7111 H   0  0  0  0  0  0  0  0  0  0  0  0
  148.6331  136.2389  139.7612 H   0  0  0  0  0  0  0  0  0  0  0  0
  148.9264  135.8888  138.0358 H   0  0  0  0  0  0  0  0  0  0  0  0
  147.0285  137.1552  140.5478 H   0  0  0  0  0  0  0  0  0  0  0  0
  144.7715  136.4148  138.8099 H   0  0  0  0  0  0  0  0  0  0  0  0
  143.6344  133.5493  141.1584 H   0  0  0  0  0  0  0  0  0  0  0  0
  143.6728  134.5483  142.7174 H   0  0  0  0  0  0  0  0  0  0  0  0
  141.3854  135.1257  142.4597 H   0  0  0  0  0  0  0  0  0  0  0  0
  141.5580  133.3407  142.5930 H   0  0  0  0  0  0  0  0  0  0  0  0
  140.4204  135.5443  139.2009 H   0  0  0  0  0  0  0  0  0  0  0  0
  141.8906  134.5225  138.7990 H   0  0  0  0  0  0  0  0  0  0  0  0
  141.6579  136.9154  140.6840 H   0  0  0  0  0  0  0  0  0  0  0  0
  142.6504  136.6345  139.2325 H   0  0  0  0  0  0  0  0  0  0  0  0
  139.4814  130.3737  141.1815 H   0  0  0  0  0  0  0  0  0  0  0  0
  137.9630  131.3626  141.5266 H   0  0  0  0  0  0  0  0  0  0  0  0
  139.2831  131.2465  142.7246 H   0  0  0  0  0  0  0  0  0  0  0  0
  141.8118  132.0496  140.6496 H   0  0  0  0  0  0  0  0  0  0  0  0
  142.8011  132.0132  138.3407 H   0  0  0  0  0  0  0  0  0  0  0  0
  142.4300  131.5531  135.9879 H   0  0  0  0  0  0  0  0  0  0  0  0
  138.2616  132.0425  136.4974 H   0  0  0  0  0  0  0  0  0  0  0  0
  138.6034  132.5069  138.8584 H   0  0  0  0  0  0  0  0  0  0  0  0
  147.6701  139.6844  142.4711 H   0  0  0  0  0  0  0  0  0  0  0  0
  148.8866  139.4409  141.1885 H   0  0  0  0  0  0  0  0  0  0  0  0
  147.7290  138.1016  141.5387 H   0  0  0  0  0  0  0  0  0  0  0  0
  1  2  1  0
  2  3  1  0
  3  4  1  0
  3  5  1  0
  5  6  1  0
  6  7  1  0
  7  8  2  0
  7  9  1  0
  9 10  1  0
 10 11  1  0
 11 12  1  0
 12 13  1  0
 13 14  1  0
 12 15  1  0
 15 16  2  0
 15 17  1  0
 17 18  1  0
 17 19  1  0
 19 20  1  0
 20 21  2  0
 21 22  1  0
 22 23  2  0
 23 24  1  0
 23 25  1  0
 25 26  2  0
  5 27  1  0
 27 28  2  0
 27 29  1  0
 29 30  1  0
 14  9  1  0
 26 20  1  0
 19 12  1  0
  1 31  1  0
  1 32  1  0
  1 33  1  0
  2 34  1  0
  2 35  1  0
  3 36  1  6
  4 37  1  0
  4 38  1  0
  4 39  1  0
  5 40  1  1
  6 41  1  0
 10 42  1  0
 10 43  1  0
 11 44  1  0
 11 45  1  0
 13 46  1  0
 13 47  1  0
 14 48  1  0
 14 49  1  0
 18 50  1  0
 18 51  1  0
 18 52  1  0
 19 53  1  1
 21 54  1  0
 22 55  1  0
 25 56  1  0
 26 57  1  0
 30 58  1  0
 30 59  1  0
 30 60  1  0
M  END
>  <docking_score>  (1) 
-6.3959999999999999

$$$$

     RDKit          3D

 60 62  0  0  0  0  0  0  0  0999 V2000
  137.1132  123.2900  140.5913 C   0  0  0  0  0  0  0  0  0  0  0  0
  136.2272  122.3039  141.2809 C   0  0  0  0  0  0  0  0  0  0  0  0
  136.5645  120.8721  140.9610 C   0  0  2  0  0  0  0  0  0  0  0  0
  137.8317  120.8765  140.1172 C   0  0  0  0  0  0  0  0  0  0  0  0
  135.4944  120.1306  140.2273 C   0  0  2  0  0  0  0  0  0  0  0  0
  136.0240  119.7710  138.9310 N   0  0  0  0  0  0  0  0  0  0  0  0
  136.0118  118.4473  138.4102 C   0  0  0  0  0  0  0  0  0  0  0  0
  135.4997  117.5552  139.1511 O   0  0  0  0  0  0  0  0  0  0  0  0
  136.5458  118.1506  137.1307 N   0  0  0  0  0  0  0  0  0  0  0  0
  135.6475  117.8778  136.0314 C   0  0  0  0  0  0  0  0  0  0  0  0
  136.4520  118.1782  134.7635 C   0  0  0  0  0  0  0  0  0  0  0  0
  137.6465  117.2802  134.6266 C   0  0  0  0  0  0  0  0  0  0  0  0
  138.4208  117.1771  135.8869 C   0  0  0  0  0  0  0  0  0  0  0  0
  137.9747  118.1333  136.9781 C   0  0  0  0  0  0  0  0  0  0  0  0
  138.4084  117.6479  133.4096 C   0  0  0  0  0  0  0  0  0  0  0  0
  139.3416  118.4402  133.0800 O   0  0  0  0  0  0  0  0  0  0  0  0
  137.6360  116.6987  132.6858 N   0  0  0  0  0  0  0  0  0  0  0  0
  137.2550  116.4334  131.3119 C   0  0  0  0  0  0  0  0  0  0  0  0
  137.3174  116.0019  133.9164 C   0  0  1  0  0  0  0  0  0  0  0  0
  138.1798  114.8516  134.1662 C   0  0  0  0  0  0  0  0  0  0  0  0
  137.7044  113.7742  134.8847 C   0  0  0  0  0  0  0  0  0  0  0  0
  138.5073  112.6587  135.1399 C   0  0  0  0  0  0  0  0  0  0  0  0
  139.8057  112.6099  134.6743 C   0  0  0  0  0  0  0  0  0  0  0  0
  140.8288  111.2010  134.9935 Cl  0  0  0  0  0  0  0  0  0  0  0  0
  140.2822  113.6735  133.9621 C   0  0  0  0  0  0  0  0  0  0  0  0
  139.4799  114.7678  133.7174 C   0  0  0  0  0  0  0  0  0  0  0  0
  134.2606  120.9160  140.1412 C   0  0  0  0  0  0  0  0  0  0  0  0
  133.2559  120.5002  140.8129 O   0  0  0  0  0  0  0  0  0  0  0  0
  134.1265  122.0631  139.3857 O   0  0  0  0  0  0  0  0  0  0  0  0
  133.0491  122.9389  139.6637 C   0  0  0  0  0  0  0  0  0  0  0  0
  137.5465  122.8459  139.6523 H   0  0  0  0  0  0  0  0  0  0  0  0
  137.9959  123.5828  141.2043 H   0  0  0  0  0  0  0  0  0  0  0  0
  136.5974  124.2374  140.3277 H   0  0  0  0  0  0  0  0  0  0  0  0
  136.1157  122.4750  142.3702 H   0  0  0  0  0  0  0  0  0  0  0  0
  135.1896  122.4734  140.8668 H   0  0  0  0  0  0  0  0  0  0  0  0
  136.8341  120.3384  141.9183 H   0  0  0  0  0  0  0  0  0  0  0  0
  138.6154  121.5145  140.5827 H   0  0  0  0  0  0  0  0  0  0  0  0
  138.2611  119.8623  140.0130 H   0  0  0  0  0  0  0  0  0  0  0  0
  137.6185  121.2491  139.0914 H   0  0  0  0  0  0  0  0  0  0  0  0
  135.2714  119.1635  140.7477 H   0  0  0  0  0  0  0  0  0  0  0  0
  136.4392  120.5252  138.3425 H   0  0  0  0  0  0  0  0  0  0  0  0
  135.3058  116.8332  136.0028 H   0  0  0  0  0  0  0  0  0  0  0  0
  134.7920  118.6125  135.9959 H   0  0  0  0  0  0  0  0  0  0  0  0
  136.7773  119.2303  134.8517 H   0  0  0  0  0  0  0  0  0  0  0  0
  135.8290  118.0709  133.8564 H   0  0  0  0  0  0  0  0  0  0  0  0
  139.5211  117.3850  135.7418 H   0  0  0  0  0  0  0  0  0  0  0  0
  138.3018  116.1410  136.3188 H   0  0  0  0  0  0  0  0  0  0  0  0
  138.3730  119.1537  136.8210 H   0  0  0  0  0  0  0  0  0  0  0  0
  138.4085  117.7602  137.9290 H   0  0  0  0  0  0  0  0  0  0  0  0
  136.1521  116.3993  131.2171 H   0  0  0  0  0  0  0  0  0  0  0  0
  137.7269  115.4818  130.9330 H   0  0  0  0  0  0  0  0  0  0  0  0
  137.6135  117.2392  130.6332 H   0  0  0  0  0  0  0  0  0  0  0  0
  136.2404  115.7682  134.0477 H   0  0  0  0  0  0  0  0  0  0  0  0
  136.7011  113.7257  135.2876 H   0  0  0  0  0  0  0  0  0  0  0  0
  138.1348  111.8135  135.7034 H   0  0  0  0  0  0  0  0  0  0  0  0
  141.2956  113.6589  133.5871 H   0  0  0  0  0  0  0  0  0  0  0  0
  139.8818  115.5880  133.1552 H   0  0  0  0  0  0  0  0  0  0  0  0
  133.4428  123.9766  139.5489 H   0  0  0  0  0  0  0  0  0  0  0  0
  132.6963  122.8476  140.7118 H   0  0  0  0  0  0  0  0  0  0  0  0
  132.1972  122.7506  138.9803 H   0  0  0  0  0  0  0  0  0  0  0  0
  1  2  1  0
  2  3  1  0
  3  4  1  0
  3  5  1  0
  5  6  1  0
  6  7  1  0
  7  8  2  0
  7  9  1  0
  9 10  1  0
 10 11  1  0
 11 12  1  0
 12 13  1  0
 13 14  1  0
 12 15  1  0
 15 16  2  0
 15 17  1  0
 17 18  1  0
 17 19  1  0
 19 20  1  0
 20 21  2  0
 21 22  1  0
 22 23  2  0
 23 24  1  0
 23 25  1  0
 25 26  2  0
  5 27  1  0
 27 28  2  0
 27 29  1  0
 29 30  1  0
 14  9  1  0
 26 20  1  0
 19 12  1  0
  1 31  1  0
  1 32  1  0
  1 33  1  0
  2 34  1  0
  2 35  1  0
  3 36  1  1
  4 37  1  0
  4 38  1  0
  4 39  1  0
  5 40  1  1
  6 41  1  0
 10 42  1  0
 10 43  1  0
 11 44  1  0
 11 45  1  0
 13 46  1  0
 13 47  1  0
 14 48  1  0
 14 49  1  0
 18 50  1  0
 18 51  1  0
 18 52  1  0
 19 53  1  6
 21 54  1  0
 22 55  1  0
 25 56  1  0
 26 57  1  0
 30 58  1  0
 30 59  1  0
 30 60  1  0
M  END
>  <docking_score>  (2) 
-6.2910000000000004

$$$$

     RDKit          3D

 60 62  0  0  0  0  0  0  0  0999 V2000
  132.9109  135.0126  137.4517 C   0  0  0  0  0  0  0  0  0  0  0  0
  133.8195  134.3233  136.4862 C   0  0  0  0  0  0  0  0  0  0  0  0
  133.3280  132.9624  136.0709 C   0  0  2  0  0  0  0  0  0  0  0  0
  131.9155  133.1305  135.5280 C   0  0  0  0  0  0  0  0  0  0  0  0
  133.3097  131.9470  137.1671 C   0  0  2  0  0  0  0  0  0  0  0  0
  134.6134  131.9571  137.7921 N   0  0  0  0  0  0  0  0  0  0  0  0
  134.8168  132.0293  139.1981 C   0  0  0  0  0  0  0  0  0  0  0  0
  133.7736  132.0869  139.9160 O   0  0  0  0  0  0  0  0  0  0  0  0
  136.1195  132.0361  139.7579 N   0  0  0  0  0  0  0  0  0  0  0  0
  136.5599  133.1832  140.5196 C   0  0  0  0  0  0  0  0  0  0  0  0
  137.6796  132.6646  141.4264 C   0  0  0  0  0  0  0  0  0  0  0  0
  138.8487  132.1469  140.6407 C   0  0  0  0  0  0  0  0  0  0  0  0
  138.4315  131.2518  139.5346 C   0  0  0  0  0  0  0  0  0  0  0  0
  136.9577  130.8887  139.5422 C   0  0  0  0  0  0  0  0  0  0  0  0
  139.8767  131.6183  141.5683 C   0  0  0  0  0  0  0  0  0  0  0  0
  140.1616  130.5244  142.1422 O   0  0  0  0  0  0  0  0  0  0  0  0
  140.4773  132.9070  141.5759 N   0  0  0  0  0  0  0  0  0  0  0  0
  141.3642  133.6841  142.4201 C   0  0  0  0  0  0  0  0  0  0  0  0
  139.8367  133.2260  140.3152 C   0  0  1  0  0  0  0  0  0  0  0  0
  140.7042  133.0186  139.1604 C   0  0  0  0  0  0  0  0  0  0  0  0
  140.7012  133.9263  138.1215 C   0  0  0  0  0  0  0  0  0  0  0  0
  141.5209  133.7540  137.0024 C   0  0  0  0  0  0  0  0  0  0  0  0
  142.3596  132.6615  136.9110 C   0  0  0  0  0  0  0  0  0  0  0  0
  143.4004  132.4360  135.4970 Cl  0  0  0  0  0  0  0  0  0  0  0  0
  142.3671  131.7592  137.9364 C   0  0  0  0  0  0  0  0  0  0  0  0
  141.5536  131.9410  139.0346 C   0  0  0  0  0  0  0  0  0  0  0  0
  132.9280  130.6241  136.6662 C   0  0  0  0  0  0  0  0  0  0  0  0
  131.9860  130.0169  137.2805 O   0  0  0  0  0  0  0  0  0  0  0  0
  133.5213  130.0078  135.5833 O   0  0  0  0  0  0  0  0  0  0  0  0
  133.0831  128.7131  135.2131 C   0  0  0  0  0  0  0  0  0  0  0  0
  133.5023  135.4943  138.2792 H   0  0  0  0  0  0  0  0  0  0  0  0
  132.2139  134.3128  137.9666 H   0  0  0  0  0  0  0  0  0  0  0  0
  132.2709  135.7872  136.9789 H   0  0  0  0  0  0  0  0  0  0  0  0
  134.1178  134.9442  135.6180 H   0  0  0  0  0  0  0  0  0  0  0  0
  134.7866  134.1425  137.0421 H   0  0  0  0  0  0  0  0  0  0  0  0
  133.9503  132.5994  135.2021 H   0  0  0  0  0  0  0  0  0  0  0  0
  131.6768  132.3318  134.7910 H   0  0  0  0  0  0  0  0  0  0  0  0
  131.1556  133.0676  136.3295 H   0  0  0  0  0  0  0  0  0  0  0  0
  131.7978  134.1236  135.0419 H   0  0  0  0  0  0  0  0  0  0  0  0
  132.5842  132.2548  137.9638 H   0  0  0  0  0  0  0  0  0  0  0  0
  135.4544  131.9085  137.1773 H   0  0  0  0  0  0  0  0  0  0  0  0
  136.9524  133.9942  139.8896 H   0  0  0  0  0  0  0  0  0  0  0  0
  135.7664  133.5402  141.2377 H   0  0  0  0  0  0  0  0  0  0  0  0
  137.2341  131.8492  142.0241 H   0  0  0  0  0  0  0  0  0  0  0  0
  138.0415  133.4538  142.1110 H   0  0  0  0  0  0  0  0  0  0  0  0
  138.9802  130.2649  139.5408 H   0  0  0  0  0  0  0  0  0  0  0  0
  138.6169  131.7631  138.5455 H   0  0  0  0  0  0  0  0  0  0  0  0
  136.7339  130.0867  140.2710 H   0  0  0  0  0  0  0  0  0  0  0  0
  136.7211  130.4857  138.5357 H   0  0  0  0  0  0  0  0  0  0  0  0
  141.8902  134.4535  141.8219 H   0  0  0  0  0  0  0  0  0  0  0  0
  142.0954  133.0207  142.9653 H   0  0  0  0  0  0  0  0  0  0  0  0
  140.7961  134.2218  143.2116 H   0  0  0  0  0  0  0  0  0  0  0  0
  139.3228  134.2095  140.2957 H   0  0  0  0  0  0  0  0  0  0  0  0
  140.0771  134.8105  138.1078 H   0  0  0  0  0  0  0  0  0  0  0  0
  141.5189  134.4657  136.1875 H   0  0  0  0  0  0  0  0  0  0  0  0
  143.0151  130.8957  137.8879 H   0  0  0  0  0  0  0  0  0  0  0  0
  141.5814  131.2156  139.8242 H   0  0  0  0  0  0  0  0  0  0  0  0
  133.7356  127.9877  135.7546 H   0  0  0  0  0  0  0  0  0  0  0  0
  133.2234  128.5184  134.1297 H   0  0  0  0  0  0  0  0  0  0  0  0
  132.0148  128.5667  135.4689 H   0  0  0  0  0  0  0  0  0  0  0  0
  1  2  1  0
  2  3  1  0
  3  4  1  0
  3  5  1  0
  5  6  1  0
  6  7  1  0
  7  8  2  0
  7  9  1  0
  9 10  1  0
 10 11  1  0
 11 12  1  0
 12 13  1  0
 13 14  1  0
 12 15  1  0
 15 16  2  0
 15 17  1  0
 17 18  1  0
 17 19  1  0
 19 20  1  0
 20 21  2  0
 21 22  1  0
 22 23  2  0
 23 24  1  0
 23 25  1  0
 25 26  2  0
  5 27  1  0
 27 28  2  0
 27 29  1  0
 29 30  1  0
 14  9  1  0
 26 20  1  0
 19 12  1  0
  1 31  1  0
  1 32  1  0
  1 33  1  0
  2 34  1  0
  2 35  1  0
  3 36  1  6
  4 37  1  0
  4 38  1  0
  4 39  1  0
  5 40  1  1
  6 41  1  0
 10 42  1  0
 10 43  1  0
 11 44  1  0
 11 45  1  0
 13 46  1  0
 13 47  1  0
 14 48  1  0
 14 49  1  0
 18 50  1  0
 18 51  1  0
 18 52  1  0
 19 53  1  1
 21 54  1  0
 22 55  1  0
 25 56  1  0
 26 57  1  0
 30 58  1  0
 30 59  1  0
 30 60  1  0
M  END
>  <docking_score>  (3) 
-5.9610000000000003

$$$$
