
     RDKit          3D

 57 62  0  0  0  0  0  0  0  0999 V2000
  132.1307  128.0335  141.0882 O   0  0  0  0  0  0  0  0  0  0  0  0
  130.9165  127.8594  141.3393 C   0  0  0  0  0  0  0  0  0  0  0  0
  129.7103  128.6628  141.3381 N   0  0  0  0  0  0  0  0  0  0  0  0
  129.5177  129.8641  140.5928 C   0  0  0  0  0  0  0  0  0  0  0  0
  128.8071  130.9233  141.1801 C   0  0  0  0  0  0  0  0  0  0  0  0
  128.5760  132.1170  140.5749 C   0  0  0  0  0  0  0  0  0  0  0  0
  129.0745  132.2878  139.3036 C   0  0  0  0  0  0  0  0  0  0  0  0
  129.7772  131.2735  138.6914 C   0  0  0  0  0  0  0  0  0  0  0  0
  130.4002  131.5425  137.0490 Cl  0  0  0  0  0  0  0  0  0  0  0  0
  129.9935  130.0804  139.3295 C   0  0  0  0  0  0  0  0  0  0  0  0
  129.1431  127.7574  142.2491 C   0  0  1  0  0  0  0  0  0  0  0  0
  127.7740  127.2596  142.1121 C   0  0  0  0  0  0  0  0  0  0  0  0
  126.8150  127.7375  141.2459 C   0  0  0  0  0  0  0  0  0  0  0  0
  125.5692  127.1556  141.2793 C   0  0  0  0  0  0  0  0  0  0  0  0
  125.2496  126.1231  142.1396 C   0  0  0  0  0  0  0  0  0  0  0  0
  126.2329  125.6727  142.9891 C   0  0  0  0  0  0  0  0  0  0  0  0
  127.4379  126.2335  142.9588 N   0  0  0  0  0  0  0  0  0  0  0  0
  130.1259  126.7045  141.7712 C   0  0  0  0  0  0  0  0  0  0  0  0
  129.7269  125.8734  140.5968 C   0  0  0  0  0  0  0  0  0  0  0  0
  131.0217  125.3158  140.0198 C   0  0  0  0  0  0  0  0  0  0  0  0
  131.5945  124.4924  141.0633 N   0  0  0  0  0  0  0  0  0  0  0  0
  132.6385  123.5932  140.7062 C   0  0  0  0  0  0  0  0  0  0  0  0
  133.9351  123.8368  140.4755 N   0  0  0  0  0  0  0  0  0  0  0  0
  134.5782  122.6882  140.1295 C   0  0  0  0  0  0  0  0  0  0  0  0
  135.8930  122.4443  139.8004 C   0  0  0  0  0  0  0  0  0  0  0  0
  136.2451  121.1498  139.4812 C   0  0  0  0  0  0  0  0  0  0  0  0
  137.5445  120.8527  139.1438 F   0  0  0  0  0  0  0  0  0  0  0  0
  135.3090  120.1407  139.4939 C   0  0  0  0  0  0  0  0  0  0  0  0
  135.7267  118.7601  139.1308 C   0  0  0  0  0  0  0  0  0  0  0  0
  134.5707  117.9790  139.2198 F   0  0  0  0  0  0  0  0  0  0  0  0
  136.5899  118.2528  140.0889 F   0  0  0  0  0  0  0  0  0  0  0  0
  136.3330  118.6677  137.9139 F   0  0  0  0  0  0  0  0  0  0  0  0
  134.0042  120.4061  139.8264 C   0  0  0  0  0  0  0  0  0  0  0  0
  133.6247  121.6950  140.1507 C   0  0  0  0  0  0  0  0  0  0  0  0
  132.4489  122.2743  140.5066 N   0  0  0  0  0  0  0  0  0  0  0  0
  131.1765  124.5326  142.4495 C   0  0  0  0  0  0  0  0  0  0  0  0
  130.7285  125.9003  142.8891 C   0  0  0  0  0  0  0  0  0  0  0  0
  128.4264  130.7443  142.1996 H   0  0  0  0  0  0  0  0  0  0  0  0
  128.0184  132.9289  141.0544 H   0  0  0  0  0  0  0  0  0  0  0  0
  128.9030  133.2383  138.7982 H   0  0  0  0  0  0  0  0  0  0  0  0
  130.5519  129.3033  138.8149 H   0  0  0  0  0  0  0  0  0  0  0  0
  129.3540  127.9893  143.3484 H   0  0  0  0  0  0  0  0  0  0  0  0
  127.0604  128.5370  140.5867 H   0  0  0  0  0  0  0  0  0  0  0  0
  124.8064  127.5134  140.6082 H   0  0  0  0  0  0  0  0  0  0  0  0
  124.2649  125.6670  142.1672 H   0  0  0  0  0  0  0  0  0  0  0  0
  126.0069  124.8516  143.6900 H   0  0  0  0  0  0  0  0  0  0  0  0
  129.1167  124.9820  140.8293 H   0  0  0  0  0  0  0  0  0  0  0  0
  129.2808  126.5292  139.8315 H   0  0  0  0  0  0  0  0  0  0  0  0
  130.8277  124.6653  139.1354 H   0  0  0  0  0  0  0  0  0  0  0  0
  131.7441  126.1289  139.8041 H   0  0  0  0  0  0  0  0  0  0  0  0
  136.6080  123.2514  139.8012 H   0  0  0  0  0  0  0  0  0  0  0  0
  133.2705  119.6333  139.8376 H   0  0  0  0  0  0  0  0  0  0  0  0
  131.5688  121.7259  140.5934 H   0  0  0  0  0  0  0  0  0  0  0  0
  132.0671  124.2793  143.0635 H   0  0  0  0  0  0  0  0  0  0  0  0
  130.4257  123.7605  142.6565 H   0  0  0  0  0  0  0  0  0  0  0  0
  129.9790  125.8040  143.6979 H   0  0  0  0  0  0  0  0  0  0  0  0
  131.5713  126.4871  143.3145 H   0  0  0  0  0  0  0  0  0  0  0  0
  1  2  2  0
  2  3  1  0
  3  4  1  0
  4  5  2  0
  5  6  1  0
  6  7  2  0
  7  8  1  0
  8  9  1  0
  8 10  2  0
  3 11  1  0
 11 12  1  0
 12 13  2  0
 13 14  1  0
 14 15  2  0
 15 16  1  0
 16 17  2  0
 11 18  1  0
 18 19  1  0
 19 20  1  0
 20 21  1  0
 21 22  1  0
 22 23  2  0
 23 24  1  0
 24 25  2  0
 25 26  1  0
 26 27  1  0
 26 28  2  0
 28 29  1  0
 29 30  1  0
 29 31  1  0
 29 32  1  0
 28 33  1  0
 33 34  2  0
 34 35  1  0
 21 36  1  0
 36 37  1  0
 18  2  1  0
 35 22  1  0
 10  4  1  0
 17 12  1  0
 37 18  1  0
 34 24  1  0
  5 38  1  0
  6 39  1  0
  7 40  1  0
 10 41  1  0
 11 42  1  1
 13 43  1  0
 14 44  1  0
 15 45  1  0
 16 46  1  0
 19 47  1  0
 19 48  1  0
 20 49  1  0
 20 50  1  0
 25 51  1  0
 33 52  1  0
 35 53  1  0
 36 54  1  0
 36 55  1  0
 37 56  1  0
 37 57  1  0
M  END
>  <docking_score>  (1) 
-10.076000000000001

$$$$

     RDKit          3D

 57 62  0  0  0  0  0  0  0  0999 V2000
  139.3513  116.0010  132.4432 O   0  0  0  0  0  0  0  0  0  0  0  0
  138.3295  115.4726  131.9490 C   0  0  0  0  0  0  0  0  0  0  0  0
  138.0386  114.4458  130.9683 N   0  0  0  0  0  0  0  0  0  0  0  0
  138.9274  113.4004  130.5773 C   0  0  0  0  0  0  0  0  0  0  0  0
  139.2513  113.2548  129.2187 C   0  0  0  0  0  0  0  0  0  0  0  0
  140.0963  112.3096  128.7317 C   0  0  0  0  0  0  0  0  0  0  0  0
  140.6652  111.4435  129.6373 C   0  0  0  0  0  0  0  0  0  0  0  0
  140.3737  111.5523  130.9792 C   0  0  0  0  0  0  0  0  0  0  0  0
  141.1331  110.4100  132.1090 Cl  0  0  0  0  0  0  0  0  0  0  0  0
  139.5167  112.5176  131.4388 C   0  0  0  0  0  0  0  0  0  0  0  0
  136.7774  115.0316  130.7744 C   0  0  1  0  0  0  0  0  0  0  0  0
  135.5491  114.2410  130.6901 C   0  0  0  0  0  0  0  0  0  0  0  0
  134.3170  114.6901  130.2673 C   0  0  0  0  0  0  0  0  0  0  0  0
  133.2675  113.8011  130.2816 C   0  0  0  0  0  0  0  0  0  0  0  0
  133.4033  112.4916  130.6999 C   0  0  0  0  0  0  0  0  0  0  0  0
  134.6482  112.0797  131.1143 C   0  0  0  0  0  0  0  0  0  0  0  0
  135.6642  112.9370  131.1015 N   0  0  0  0  0  0  0  0  0  0  0  0
  136.8912  115.6645  132.1489 C   0  0  0  0  0  0  0  0  0  0  0  0
  136.4129  114.8655  133.3160 C   0  0  0  0  0  0  0  0  0  0  0  0
  137.0995  115.4595  134.5392 C   0  0  0  0  0  0  0  0  0  0  0  0
  136.6343  116.8274  134.6254 N   0  0  0  0  0  0  0  0  0  0  0  0
  136.8566  117.5324  135.8418 C   0  0  0  0  0  0  0  0  0  0  0  0
  137.7265  117.2815  136.8287 N   0  0  0  0  0  0  0  0  0  0  0  0
  137.5836  118.1937  137.8288 C   0  0  0  0  0  0  0  0  0  0  0  0
  138.2403  118.3378  139.0306 C   0  0  0  0  0  0  0  0  0  0  0  0
  137.8557  119.3770  139.8515 C   0  0  0  0  0  0  0  0  0  0  0  0
  138.4781  119.5644  141.0631 F   0  0  0  0  0  0  0  0  0  0  0  0
  136.8494  120.2376  139.4754 C   0  0  0  0  0  0  0  0  0  0  0  0
  136.4557  121.3383  140.3951 C   0  0  0  0  0  0  0  0  0  0  0  0
  135.7626  120.7260  141.4435 F   0  0  0  0  0  0  0  0  0  0  0  0
  135.5345  122.1708  139.7797 F   0  0  0  0  0  0  0  0  0  0  0  0
  137.5008  122.0986  140.8270 F   0  0  0  0  0  0  0  0  0  0  0  0
  136.2093  120.0763  138.2722 C   0  0  0  0  0  0  0  0  0  0  0  0
  136.5755  119.0428  137.4305 C   0  0  0  0  0  0  0  0  0  0  0  0
  136.1491  118.6172  136.2131 N   0  0  0  0  0  0  0  0  0  0  0  0
  135.9639  117.5256  133.5479 C   0  0  0  0  0  0  0  0  0  0  0  0
  136.4372  117.0969  132.1853 C   0  0  0  0  0  0  0  0  0  0  0  0
  138.7744  113.9700  128.5279 H   0  0  0  0  0  0  0  0  0  0  0  0
  140.3338  112.2161  127.6663 H   0  0  0  0  0  0  0  0  0  0  0  0
  141.3481  110.6774  129.2701 H   0  0  0  0  0  0  0  0  0  0  0  0
  139.3103  112.5726  132.5042 H   0  0  0  0  0  0  0  0  0  0  0  0
  136.7503  115.8595  129.9865 H   0  0  0  0  0  0  0  0  0  0  0  0
  134.2119  115.7012  129.9501 H   0  0  0  0  0  0  0  0  0  0  0  0
  132.2969  114.1323  129.9526 H   0  0  0  0  0  0  0  0  0  0  0  0
  132.5733  111.7921  130.7137 H   0  0  0  0  0  0  0  0  0  0  0  0
  134.7872  111.0406  131.4571 H   0  0  0  0  0  0  0  0  0  0  0  0
  135.3327  114.9428  133.5356 H   0  0  0  0  0  0  0  0  0  0  0  0
  136.7708  113.8286  133.2085 H   0  0  0  0  0  0  0  0  0  0  0  0
  136.7958  114.9330  135.4737 H   0  0  0  0  0  0  0  0  0  0  0  0
  138.1995  115.4907  134.4024 H   0  0  0  0  0  0  0  0  0  0  0  0
  139.0277  117.6525  139.3008 H   0  0  0  0  0  0  0  0  0  0  0  0
  135.4276  120.7352  137.9714 H   0  0  0  0  0  0  0  0  0  0  0  0
  135.3852  119.1002  135.6973 H   0  0  0  0  0  0  0  0  0  0  0  0
  136.2231  118.6012  133.6485 H   0  0  0  0  0  0  0  0  0  0  0  0
  134.8743  117.4568  133.6525 H   0  0  0  0  0  0  0  0  0  0  0  0
  135.6200  117.2265  131.4500 H   0  0  0  0  0  0  0  0  0  0  0  0
  137.2789  117.7298  131.8294 H   0  0  0  0  0  0  0  0  0  0  0  0
  1  2  2  0
  2  3  1  0
  3  4  1  0
  4  5  2  0
  5  6  1  0
  6  7  2  0
  7  8  1  0
  8  9  1  0
  8 10  2  0
  3 11  1  0
 11 12  1  0
 12 13  2  0
 13 14  1  0
 14 15  2  0
 15 16  1  0
 16 17  2  0
 11 18  1  0
 18 19  1  0
 19 20  1  0
 20 21  1  0
 21 22  1  0
 22 23  2  0
 23 24  1  0
 24 25  2  0
 25 26  1  0
 26 27  1  0
 26 28  2  0
 28 29  1  0
 29 30  1  0
 29 31  1  0
 29 32  1  0
 28 33  1  0
 33 34  2  0
 34 35  1  0
 21 36  1  0
 36 37  1  0
 18  2  1  0
 35 22  1  0
 10  4  1  0
 17 12  1  0
 37 18  1  0
 34 24  1  0
  5 38  1  0
  6 39  1  0
  7 40  1  0
 10 41  1  0
 11 42  1  6
 13 43  1  0
 14 44  1  0
 15 45  1  0
 16 46  1  0
 19 47  1  0
 19 48  1  0
 20 49  1  0
 20 50  1  0
 25 51  1  0
 33 52  1  0
 35 53  1  0
 36 54  1  0
 36 55  1  0
 37 56  1  0
 37 57  1  0
M  END
>  <docking_score>  (2) 
-9.4559999999999995

$$$$

     RDKit          3D

 57 62  0  0  0  0  0  0  0  0999 V2000
  135.1975  129.9233  141.7442 O   0  0  0  0  0  0  0  0  0  0  0  0
  134.7778  130.6561  140.8199 C   0  0  0  0  0  0  0  0  0  0  0  0
  134.9653  132.0272  140.3890 N   0  0  0  0  0  0  0  0  0  0  0  0
  136.0905  132.8461  140.7034 C   0  0  0  0  0  0  0  0  0  0  0  0
  137.3804  132.3689  140.4197 C   0  0  0  0  0  0  0  0  0  0  0  0
  138.5223  133.0642  140.6591 C   0  0  0  0  0  0  0  0  0  0  0  0
  138.3947  134.3158  141.2168 C   0  0  0  0  0  0  0  0  0  0  0  0
  137.1474  134.8211  141.5105 C   0  0  0  0  0  0  0  0  0  0  0  0
  137.0352  136.4420  142.2302 Cl  0  0  0  0  0  0  0  0  0  0  0  0
  136.0142  134.0940  141.2564 C   0  0  0  0  0  0  0  0  0  0  0  0
  133.7247  131.9589  139.7350 C   0  0  1  0  0  0  0  0  0  0  0  0
  133.5219  132.4740  138.3805 C   0  0  0  0  0  0  0  0  0  0  0  0
  134.5020  132.9265  137.5244 C   0  0  0  0  0  0  0  0  0  0  0  0
  134.1134  133.4000  136.2929 C   0  0  0  0  0  0  0  0  0  0  0  0
  132.7927  133.4379  135.8898 C   0  0  0  0  0  0  0  0  0  0  0  0
  131.8428  132.9775  136.7713 C   0  0  0  0  0  0  0  0  0  0  0  0
  132.2158  132.5193  137.9622 N   0  0  0  0  0  0  0  0  0  0  0  0
  133.8591  130.4478  139.6984 C   0  0  0  0  0  0  0  0  0  0  0  0
  134.5787  129.8489  138.5353 C   0  0  0  0  0  0  0  0  0  0  0  0
  135.0253  128.4646  138.9874 C   0  0  0  0  0  0  0  0  0  0  0  0
  133.8094  127.7333  139.2735 N   0  0  0  0  0  0  0  0  0  0  0  0
  133.8979  126.3193  139.4113 C   0  0  0  0  0  0  0  0  0  0  0  0
  132.9503  125.4312  139.7383 N   0  0  0  0  0  0  0  0  0  0  0  0
  133.4746  124.1761  139.7869 C   0  0  0  0  0  0  0  0  0  0  0  0
  132.8994  122.9596  140.0799 C   0  0  0  0  0  0  0  0  0  0  0  0
  133.7097  121.8440  140.0551 C   0  0  0  0  0  0  0  0  0  0  0  0
  133.1857  120.6055  140.3415 F   0  0  0  0  0  0  0  0  0  0  0  0
  135.0469  121.9503  139.7462 C   0  0  0  0  0  0  0  0  0  0  0  0
  135.8895  120.7246  139.7428 C   0  0  0  0  0  0  0  0  0  0  0  0
  137.2116  121.1738  139.8105 F   0  0  0  0  0  0  0  0  0  0  0  0
  135.7827  120.0728  138.5245 F   0  0  0  0  0  0  0  0  0  0  0  0
  135.5821  119.8394  140.7322 F   0  0  0  0  0  0  0  0  0  0  0  0
  135.5990  123.1727  139.4559 C   0  0  0  0  0  0  0  0  0  0  0  0
  134.8090  124.3068  139.4736 C   0  0  0  0  0  0  0  0  0  0  0  0
  135.0414  125.6259  139.2479 N   0  0  0  0  0  0  0  0  0  0  0  0
  132.5099  128.3521  139.4359 C   0  0  0  0  0  0  0  0  0  0  0  0
  132.5853  129.7274  140.0419 C   0  0  0  0  0  0  0  0  0  0  0  0
  137.4367  131.3623  139.9726 H   0  0  0  0  0  0  0  0  0  0  0  0
  139.5181  132.6701  140.4285 H   0  0  0  0  0  0  0  0  0  0  0  0
  139.2973  134.8935  141.4165 H   0  0  0  0  0  0  0  0  0  0  0  0
  135.0475  134.5251  141.5018 H   0  0  0  0  0  0  0  0  0  0  0  0
  132.8255  132.2352  140.3844 H   0  0  0  0  0  0  0  0  0  0  0  0
  135.5194  132.9019  137.8378 H   0  0  0  0  0  0  0  0  0  0  0  0
  134.8649  133.7559  135.6083 H   0  0  0  0  0  0  0  0  0  0  0  0
  132.4872  133.8151  134.9188 H   0  0  0  0  0  0  0  0  0  0  0  0
  130.7794  132.9982  136.4792 H   0  0  0  0  0  0  0  0  0  0  0  0
  133.9621  129.6651  137.6369 H   0  0  0  0  0  0  0  0  0  0  0  0
  135.4877  130.4396  138.3364 H   0  0  0  0  0  0  0  0  0  0  0  0
  135.5685  127.9258  138.1766 H   0  0  0  0  0  0  0  0  0  0  0  0
  135.6077  128.5220  139.9293 H   0  0  0  0  0  0  0  0  0  0  0  0
  131.8488  122.9023  140.3154 H   0  0  0  0  0  0  0  0  0  0  0  0
  136.6333  123.2673  139.2174 H   0  0  0  0  0  0  0  0  0  0  0  0
  135.9846  125.9829  138.9916 H   0  0  0  0  0  0  0  0  0  0  0  0
  131.9389  127.7225  140.1513 H   0  0  0  0  0  0  0  0  0  0  0  0
  131.9483  128.3408  138.4940 H   0  0  0  0  0  0  0  0  0  0  0  0
  131.7302  130.3361  139.6903 H   0  0  0  0  0  0  0  0  0  0  0  0
  132.5045  129.6886  141.1499 H   0  0  0  0  0  0  0  0  0  0  0  0
  1  2  2  0
  2  3  1  0
  3  4  1  0
  4  5  2  0
  5  6  1  0
  6  7  2  0
  7  8  1  0
  8  9  1  0
  8 10  2  0
  3 11  1  0
 11 12  1  0
 12 13  2  0
 13 14  1  0
 14 15  2  0
 15 16  1  0
 16 17  2  0
 11 18  1  0
 18 19  1  0
 19 20  1  0
 20 21  1  0
 21 22  1  0
 22 23  2  0
 23 24  1  0
 24 25  2  0
 25 26  1  0
 26 27  1  0
 26 28  2  0
 28 29  1  0
 29 30  1  0
 29 31  1  0
 29 32  1  0
 28 33  1  0
 33 34  2  0
 34 35  1  0
 21 36  1  0
 36 37  1  0
 18  2  1  0
 35 22  1  0
 10  4  1  0
 17 12  1  0
 37 18  1  0
 34 24  1  0
  5 38  1  0
  6 39  1  0
  7 40  1  0
 10 41  1  0
 11 42  1  1
 13 43  1  0
 14 44  1  0
 15 45  1  0
 16 46  1  0
 19 47  1  0
 19 48  1  0
 20 49  1  0
 20 50  1  0
 25 51  1  0
 33 52  1  0
 35 53  1  0
 36 54  1  0
 36 55  1  0
 37 56  1  0
 37 57  1  0
M  END
>  <docking_score>  (3) 
-9.3840000000000003

$$$$
