
     RDKit          3D

 74 77  0  0  0  0  0  0  0  0999 V2000
  129.7065  124.1418  141.6368 C   0  0  0  0  0  0  0  0  0  0  0  0
  128.8941  124.5315  142.6607 O   0  0  0  0  0  0  0  0  0  0  0  0
  129.2405  125.6403  143.3687 C   0  0  0  0  0  0  0  0  0  0  0  0
  128.6739  126.9169  142.8026 C   0  0  0  0  0  0  0  0  0  0  0  0
  127.4280  126.9469  142.7002 O   0  0  0  0  0  0  0  0  0  0  0  0
  129.5018  127.9520  142.4368 O   0  0  0  0  0  0  0  0  0  0  0  0
  129.6354  128.3105  141.0748 C   0  0  2  0  0  0  0  0  0  0  0  0
  128.7172  129.4727  140.8247 C   0  0  0  0  0  0  0  0  0  0  0  0
  128.7073  130.4223  142.0345 C   0  0  0  0  0  0  0  0  0  0  0  0
  128.3291  131.7451  141.6200 N   0  0  0  0  0  0  0  0  0  0  0  0
  127.0985  131.8583  140.9253 C   0  0  0  0  0  0  0  0  0  0  0  0
  129.3638  132.5772  141.1294 C   0  0  0  0  0  0  0  0  0  0  0  0
  129.3046  133.9913  141.6776 C   0  0  0  0  0  0  0  0  0  0  0  0
  129.0550  134.9629  140.5431 C   0  0  0  0  0  0  0  0  0  0  0  0
  130.0522  134.8035  139.4547 C   0  0  0  0  0  0  0  0  0  0  0  0
  131.3789  135.0633  139.5633 N   0  0  0  0  0  0  0  0  0  0  0  0
  131.9806  134.8052  138.3846 C   0  0  0  0  0  0  0  0  0  0  0  0
  133.2700  134.8929  137.9514 C   0  0  0  0  0  0  0  0  0  0  0  0
  133.6000  134.5545  136.6622 C   0  0  0  0  0  0  0  0  0  0  0  0
  132.6346  134.1196  135.7807 C   0  0  0  0  0  0  0  0  0  0  0  0
  131.3394  134.0310  136.2135 C   0  0  0  0  0  0  0  0  0  0  0  0
  131.0092  134.3694  137.5033 C   0  0  0  0  0  0  0  0  0  0  0  0
  129.8530  134.3832  138.1925 N   0  0  0  0  0  0  0  0  0  0  0  0
  129.2216  127.1619  140.1752 C   0  0  0  0  0  0  0  0  0  0  0  0
  129.3425  127.4842  138.7346 C   0  0  0  0  0  0  0  0  0  0  0  0
  130.2107  128.6434  138.4401 C   0  0  0  0  0  0  0  0  0  0  0  0
  130.1779  129.1764  137.1777 C   0  0  0  0  0  0  0  0  0  0  0  0
  130.9729  130.2856  136.8643 C   0  0  0  0  0  0  0  0  0  0  0  0
  130.9724  130.8447  135.6296 F   0  0  0  0  0  0  0  0  0  0  0  0
  131.7973  130.8529  137.8240 C   0  0  0  0  0  0  0  0  0  0  0  0
  131.8296  130.3205  139.0824 C   0  0  0  0  0  0  0  0  0  0  0  0
  131.0379  129.2289  139.3655 C   0  0  0  0  0  0  0  0  0  0  0  0
  131.0700  128.6238  140.7243 C   0  0  2  0  0  0  0  0  0  0  0  0
  131.9465  127.4097  140.5733 C   0  0  0  0  0  0  0  0  0  0  0  0
  133.2196  127.9180  139.8712 C   0  0  0  0  0  0  0  0  0  0  0  0
  132.3745  126.7342  141.8094 C   0  0  0  0  0  0  0  0  0  0  0  0
  130.7834  124.1164  141.9270 H   0  0  0  0  0  0  0  0  0  0  0  0
  129.4441  123.2379  141.0873 H   0  0  0  0  0  0  0  0  0  0  0  0
  129.6649  124.9725  140.8721 H   0  0  0  0  0  0  0  0  0  0  0  0
  130.3410  125.7826  143.3367 H   0  0  0  0  0  0  0  0  0  0  0  0
  128.8731  125.5659  144.4243 H   0  0  0  0  0  0  0  0  0  0  0  0
  128.9658  130.0860  139.9465 H   0  0  0  0  0  0  0  0  0  0  0  0
  127.6485  129.2118  140.6965 H   0  0  0  0  0  0  0  0  0  0  0  0
  129.6466  130.4126  142.5819 H   0  0  0  0  0  0  0  0  0  0  0  0
  127.9098  130.1057  142.7699 H   0  0  0  0  0  0  0  0  0  0  0  0
  127.1656  132.5301  140.0273 H   0  0  0  0  0  0  0  0  0  0  0  0
  126.3251  132.2741  141.6251 H   0  0  0  0  0  0  0  0  0  0  0  0
  126.7231  130.8900  140.5147 H   0  0  0  0  0  0  0  0  0  0  0  0
  130.3474  132.1482  141.3105 H   0  0  0  0  0  0  0  0  0  0  0  0
  129.2280  132.6782  140.0301 H   0  0  0  0  0  0  0  0  0  0  0  0
  130.2912  134.2312  142.1193 H   0  0  0  0  0  0  0  0  0  0  0  0
  128.5389  134.1090  142.4496 H   0  0  0  0  0  0  0  0  0  0  0  0
  128.0247  134.8166  140.1438 H   0  0  0  0  0  0  0  0  0  0  0  0
  129.1339  136.0020  140.9303 H   0  0  0  0  0  0  0  0  0  0  0  0
  134.0407  135.2288  138.6188 H   0  0  0  0  0  0  0  0  0  0  0  0
  134.6393  134.6304  136.3308 H   0  0  0  0  0  0  0  0  0  0  0  0
  132.9121  133.8523  134.7542 H   0  0  0  0  0  0  0  0  0  0  0  0
  130.5824  133.6906  135.5264 H   0  0  0  0  0  0  0  0  0  0  0  0
  128.9378  134.0984  137.7728 H   0  0  0  0  0  0  0  0  0  0  0  0
  128.2057  126.7768  140.3863 H   0  0  0  0  0  0  0  0  0  0  0  0
  129.8836  126.2609  140.3845 H   0  0  0  0  0  0  0  0  0  0  0  0
  129.7982  126.6136  138.1756 H   0  0  0  0  0  0  0  0  0  0  0  0
  128.3358  127.5920  138.2279 H   0  0  0  0  0  0  0  0  0  0  0  0
  129.5534  128.7789  136.3800 H   0  0  0  0  0  0  0  0  0  0  0  0
  132.4216  131.7031  137.6240 H   0  0  0  0  0  0  0  0  0  0  0  0
  132.4440  130.7011  139.8904 H   0  0  0  0  0  0  0  0  0  0  0  0
  131.5776  129.2875  141.4457 H   0  0  0  0  0  0  0  0  0  0  0  0
  131.5197  126.6961  139.8083 H   0  0  0  0  0  0  0  0  0  0  0  0
  133.2107  129.0185  139.8605 H   0  0  0  0  0  0  0  0  0  0  0  0
  133.1546  127.5457  138.8094 H   0  0  0  0  0  0  0  0  0  0  0  0
  134.1241  127.4850  140.3454 H   0  0  0  0  0  0  0  0  0  0  0  0
  133.3576  127.1241  142.2086 H   0  0  0  0  0  0  0  0  0  0  0  0
  132.6140  125.6564  141.5621 H   0  0  0  0  0  0  0  0  0  0  0  0
  131.6977  126.6948  142.6516 H   0  0  0  0  0  0  0  0  0  0  0  0
  1  2  1  0
  2  3  1  0
  3  4  1  0
  4  5  2  0
  4  6  1  0
  7  6  1  1
  7  8  1  0
  8  9  1  0
  9 10  1  0
 10 11  1  0
 10 12  1  0
 12 13  1  0
 13 14  1  0
 14 15  1  0
 15 16  2  0
 16 17  1  0
 17 18  2  0
 18 19  1  0
 19 20  2  0
 20 21  1  0
 21 22  2  0
 22 23  1  0
  7 24  1  0
 24 25  1  0
 25 26  1  0
 26 27  2  0
 27 28  1  0
 28 29  1  0
 28 30  2  0
 30 31  1  0
 31 32  2  0
 32 33  1  0
 33 34  1  0
 34 35  1  0
 34 36  1  0
 33  7  1  0
 23 15  1  0
 32 26  1  0
 22 17  1  0
  1 37  1  0
  1 38  1  0
  1 39  1  0
  3 40  1  0
  3 41  1  0
  8 42  1  0
  8 43  1  0
  9 44  1  0
  9 45  1  0
 11 46  1  0
 11 47  1  0
 11 48  1  0
 12 49  1  0
 12 50  1  0
 13 51  1  0
 13 52  1  0
 14 53  1  0
 14 54  1  0
 18 55  1  0
 19 56  1  0
 20 57  1  0
 21 58  1  0
 23 59  1  0
 24 60  1  0
 24 61  1  0
 25 62  1  0
 25 63  1  0
 27 64  1  0
 30 65  1  0
 31 66  1  0
 33 67  1  1
 34 68  1  0
 35 69  1  0
 35 70  1  0
 35 71  1  0
 36 72  1  0
 36 73  1  0
 36 74  1  0
M  END
>  <docking_score>  (1) 
-5.9969999999999999

$$$$

     RDKit          3D

 74 77  0  0  0  0  0  0  0  0999 V2000
  144.0752  135.1432  135.5653 C   0  0  0  0  0  0  0  0  0  0  0  0
  145.0319  136.0753  135.2890 O   0  0  0  0  0  0  0  0  0  0  0  0
  146.0698  136.2072  136.1585 C   0  0  0  0  0  0  0  0  0  0  0  0
  145.6794  136.8386  137.4700 C   0  0  0  0  0  0  0  0  0  0  0  0
  145.1766  137.9802  137.3823 O   0  0  0  0  0  0  0  0  0  0  0  0
  145.8782  136.1738  138.6570 O   0  0  0  0  0  0  0  0  0  0  0  0
  146.4760  136.8374  139.7541 C   0  0  2  0  0  0  0  0  0  0  0  0
  145.5172  136.7510  140.9072 C   0  0  0  0  0  0  0  0  0  0  0  0
  144.2698  137.6091  140.6370 C   0  0  0  0  0  0  0  0  0  0  0  0
  143.1410  136.7646  140.3594 N   0  0  0  0  0  0  0  0  0  0  0  0
  142.3717  137.0990  139.2166 C   0  0  0  0  0  0  0  0  0  0  0  0
  142.3853  136.3277  141.4737 C   0  0  0  0  0  0  0  0  0  0  0  0
  142.2337  134.8188  141.5391 C   0  0  0  0  0  0  0  0  0  0  0  0
  140.8327  134.4330  141.1131 C   0  0  0  0  0  0  0  0  0  0  0  0
  140.8335  133.7043  139.8196 C   0  0  0  0  0  0  0  0  0  0  0  0
  139.7344  133.2070  139.1996 N   0  0  0  0  0  0  0  0  0  0  0  0
  140.1046  132.6118  138.0478 C   0  0  0  0  0  0  0  0  0  0  0  0
  139.4175  131.9662  137.0633 C   0  0  0  0  0  0  0  0  0  0  0  0
  140.0752  131.4465  135.9758 C   0  0  0  0  0  0  0  0  0  0  0  0
  141.4426  131.5668  135.8578 C   0  0  0  0  0  0  0  0  0  0  0  0
  142.1343  132.2145  136.8451 C   0  0  0  0  0  0  0  0  0  0  0  0
  141.4765  132.7346  137.9331 C   0  0  0  0  0  0  0  0  0  0  0  0
  141.8797  133.4038  139.0293 N   0  0  0  0  0  0  0  0  0  0  0  0
  146.7159  138.2993  139.4301 C   0  0  0  0  0  0  0  0  0  0  0  0
  147.3420  139.0433  140.5474 C   0  0  0  0  0  0  0  0  0  0  0  0
  147.9898  138.1867  141.5628 C   0  0  0  0  0  0  0  0  0  0  0  0
  148.3625  138.7565  142.7524 C   0  0  0  0  0  0  0  0  0  0  0  0
  148.9634  137.9745  143.7464 C   0  0  0  0  0  0  0  0  0  0  0  0
  149.3479  138.4959  144.9369 F   0  0  0  0  0  0  0  0  0  0  0  0
  149.1862  136.6221  143.5375 C   0  0  0  0  0  0  0  0  0  0  0  0
  148.8146  136.0548  142.3509 C   0  0  0  0  0  0  0  0  0  0  0  0
  148.2253  136.8458  141.3888 C   0  0  0  0  0  0  0  0  0  0  0  0
  147.8279  136.2520  140.0838 C   0  0  2  0  0  0  0  0  0  0  0  0
  148.9238  136.6610  139.1368 C   0  0  0  0  0  0  0  0  0  0  0  0
  150.2252  136.5389  139.9514 C   0  0  0  0  0  0  0  0  0  0  0  0
  149.0967  135.8488  137.9210 C   0  0  0  0  0  0  0  0  0  0  0  0
  143.2125  135.1890  134.8595 H   0  0  0  0  0  0  0  0  0  0  0  0
  144.3898  134.1095  135.7075 H   0  0  0  0  0  0  0  0  0  0  0  0
  143.6177  135.4490  136.5522 H   0  0  0  0  0  0  0  0  0  0  0  0
  146.8356  136.8900  135.7346 H   0  0  0  0  0  0  0  0  0  0  0  0
  146.5108  135.2067  136.4020 H   0  0  0  0  0  0  0  0  0  0  0  0
  145.1569  135.7391  141.1425 H   0  0  0  0  0  0  0  0  0  0  0  0
  145.8970  137.1487  141.8686 H   0  0  0  0  0  0  0  0  0  0  0  0
  144.4328  138.3513  139.8594 H   0  0  0  0  0  0  0  0  0  0  0  0
  143.9850  138.1837  141.5675 H   0  0  0  0  0  0  0  0  0  0  0  0
  142.9924  137.5277  138.3840 H   0  0  0  0  0  0  0  0  0  0  0  0
  141.5973  137.8570  139.5111 H   0  0  0  0  0  0  0  0  0  0  0  0
  141.8554  136.2254  138.7505 H   0  0  0  0  0  0  0  0  0  0  0  0
  142.7934  136.7022  142.4106 H   0  0  0  0  0  0  0  0  0  0  0  0
  141.3528  136.7260  141.3630 H   0  0  0  0  0  0  0  0  0  0  0  0
  142.3671  134.5045  142.5924 H   0  0  0  0  0  0  0  0  0  0  0  0
  142.9718  134.2972  140.9233 H   0  0  0  0  0  0  0  0  0  0  0  0
  140.3585  133.8083  141.9051 H   0  0  0  0  0  0  0  0  0  0  0  0
  140.2244  135.3549  140.9863 H   0  0  0  0  0  0  0  0  0  0  0  0
  138.3516  131.8593  137.1317 H   0  0  0  0  0  0  0  0  0  0  0  0
  139.5088  130.9316  135.1948 H   0  0  0  0  0  0  0  0  0  0  0  0
  141.9549  131.1474  134.9840 H   0  0  0  0  0  0  0  0  0  0  0  0
  143.2038  132.3106  136.7551 H   0  0  0  0  0  0  0  0  0  0  0  0
  142.8818  133.6431  139.2124 H   0  0  0  0  0  0  0  0  0  0  0  0
  145.8080  138.8333  139.0902 H   0  0  0  0  0  0  0  0  0  0  0  0
  147.4087  138.3781  138.5313 H   0  0  0  0  0  0  0  0  0  0  0  0
  148.1578  139.7219  140.1574 H   0  0  0  0  0  0  0  0  0  0  0  0
  146.6308  139.7794  141.0314 H   0  0  0  0  0  0  0  0  0  0  0  0
  148.2156  139.8108  142.9790 H   0  0  0  0  0  0  0  0  0  0  0  0
  149.6437  135.9885  144.2736 H   0  0  0  0  0  0  0  0  0  0  0  0
  148.9517  135.0077  142.1055 H   0  0  0  0  0  0  0  0  0  0  0  0
  147.8458  135.1491  140.1244 H   0  0  0  0  0  0  0  0  0  0  0  0
  148.8789  137.7693  138.9216 H   0  0  0  0  0  0  0  0  0  0  0  0
  150.8914  135.8134  139.4604 H   0  0  0  0  0  0  0  0  0  0  0  0
  149.9216  136.1284  140.9562 H   0  0  0  0  0  0  0  0  0  0  0  0
  150.6861  137.5370  140.0994 H   0  0  0  0  0  0  0  0  0  0  0  0
  148.9771  136.4468  136.9692 H   0  0  0  0  0  0  0  0  0  0  0  0
  148.2422  135.1096  137.8617 H   0  0  0  0  0  0  0  0  0  0  0  0
  149.9966  135.2618  137.8013 H   0  0  0  0  0  0  0  0  0  0  0  0
  1  2  1  0
  2  3  1  0
  3  4  1  0
  4  5  2  0
  4  6  1  0
  7  6  1  6
  7  8  1  0
  8  9  1  0
  9 10  1  0
 10 11  1  0
 10 12  1  0
 12 13  1  0
 13 14  1  0
 14 15  1  0
 15 16  2  0
 16 17  1  0
 17 18  2  0
 18 19  1  0
 19 20  2  0
 20 21  1  0
 21 22  2  0
 22 23  1  0
  7 24  1  0
 24 25  1  0
 25 26  1  0
 26 27  2  0
 27 28  1  0
 28 29  1  0
 28 30  2  0
 30 31  1  0
 31 32  2  0
 32 33  1  0
 33 34  1  0
 34 35  1  0
 34 36  1  0
 33  7  1  0
 23 15  1  0
 32 26  1  0
 22 17  1  0
  1 37  1  0
  1 38  1  0
  1 39  1  0
  3 40  1  0
  3 41  1  0
  8 42  1  0
  8 43  1  0
  9 44  1  0
  9 45  1  0
 11 46  1  0
 11 47  1  0
 11 48  1  0
 12 49  1  0
 12 50  1  0
 13 51  1  0
 13 52  1  0
 14 53  1  0
 14 54  1  0
 18 55  1  0
 19 56  1  0
 20 57  1  0
 21 58  1  0
 23 59  1  0
 24 60  1  0
 24 61  1  0
 25 62  1  0
 25 63  1  0
 27 64  1  0
 30 65  1  0
 31 66  1  0
 33 67  1  1
 34 68  1  0
 35 69  1  0
 35 70  1  0
 35 71  1  0
 36 72  1  0
 36 73  1  0
 36 74  1  0
M  END
>  <docking_score>  (2) 
-5.9909999999999997

$$$$

     RDKit          3D

 74 77  0  0  0  0  0  0  0  0999 V2000
  143.3385  134.6436  134.7060 C   0  0  0  0  0  0  0  0  0  0  0  0
  144.4576  134.9336  135.4297 O   0  0  0  0  0  0  0  0  0  0  0  0
  144.8479  136.2341  135.5151 C   0  0  0  0  0  0  0  0  0  0  0  0
  144.6021  136.8482  136.8693 C   0  0  0  0  0  0  0  0  0  0  0  0
  144.0965  137.9917  136.8513 O   0  0  0  0  0  0  0  0  0  0  0  0
  144.9246  136.1667  138.0191 O   0  0  0  0  0  0  0  0  0  0  0  0
  145.6129  136.8224  139.0669 C   0  0  2  0  0  0  0  0  0  0  0  0
  144.7554  136.7258  140.2964 C   0  0  0  0  0  0  0  0  0  0  0  0
  143.5252  137.6400  140.1691 C   0  0  0  0  0  0  0  0  0  0  0  0
  142.3245  136.8864  140.4040 N   0  0  0  0  0  0  0  0  0  0  0  0
  141.7393  137.0208  141.6882 C   0  0  0  0  0  0  0  0  0  0  0  0
  142.2816  135.5767  139.8687 C   0  0  0  0  0  0  0  0  0  0  0  0
  141.2722  134.6800  140.5622 C   0  0  0  0  0  0  0  0  0  0  0  0
  141.5233  133.2390  140.1699 C   0  0  0  0  0  0  0  0  0  0  0  0
  141.0933  132.9670  138.7752 C   0  0  0  0  0  0  0  0  0  0  0  0
  139.9579  133.4355  138.1998 N   0  0  0  0  0  0  0  0  0  0  0  0
  139.8898  132.9950  136.9273 C   0  0  0  0  0  0  0  0  0  0  0  0
  138.9823  133.1637  135.9243 C   0  0  0  0  0  0  0  0  0  0  0  0
  139.1790  132.5805  134.6969 C   0  0  0  0  0  0  0  0  0  0  0  0
  140.2972  131.8131  134.4544 C   0  0  0  0  0  0  0  0  0  0  0  0
  141.2095  131.6423  135.4600 C   0  0  0  0  0  0  0  0  0  0  0  0
  141.0129  132.2258  136.6880 C   0  0  0  0  0  0  0  0  0  0  0  0
  141.7170  132.2343  137.8352 N   0  0  0  0  0  0  0  0  0  0  0  0
  145.8239  138.2871  138.7352 C   0  0  0  0  0  0  0  0  0  0  0  0
  146.5421  139.0230  139.8013 C   0  0  0  0  0  0  0  0  0  0  0  0
  147.2740  138.1592  140.7513 C   0  0  0  0  0  0  0  0  0  0  0  0
  147.7459  138.7200  141.9095 C   0  0  0  0  0  0  0  0  0  0  0  0
  148.4293  137.9310  142.8428 C   0  0  0  0  0  0  0  0  0  0  0  0
  148.9131  138.4435  144.0004 F   0  0  0  0  0  0  0  0  0  0  0  0
  148.6343  136.5805  142.6050 C   0  0  0  0  0  0  0  0  0  0  0  0
  148.1637  136.0221  141.4497 C   0  0  0  0  0  0  0  0  0  0  0  0
  147.4945  136.8200  140.5473 C   0  0  0  0  0  0  0  0  0  0  0  0
  146.9882  136.2360  139.2761 C   0  0  2  0  0  0  0  0  0  0  0  0
  147.9997  136.6537  138.2428 C   0  0  0  0  0  0  0  0  0  0  0  0
  149.3671  136.5038  138.9356 C   0  0  0  0  0  0  0  0  0  0  0  0
  148.0548  135.8641  137.0014 C   0  0  0  0  0  0  0  0  0  0  0  0
  143.3924  135.0237  133.6585 H   0  0  0  0  0  0  0  0  0  0  0  0
  142.9716  133.6174  134.7149 H   0  0  0  0  0  0  0  0  0  0  0  0
  142.5055  135.2571  135.1604 H   0  0  0  0  0  0  0  0  0  0  0  0
  144.2541  136.8555  134.8126 H   0  0  0  0  0  0  0  0  0  0  0  0
  145.9452  136.3314  135.3124 H   0  0  0  0  0  0  0  0  0  0  0  0
  144.3761  135.7195  140.5255 H   0  0  0  0  0  0  0  0  0  0  0  0
  145.2333  137.0704  141.2343 H   0  0  0  0  0  0  0  0  0  0  0  0
  143.4988  138.1771  139.2242 H   0  0  0  0  0  0  0  0  0  0  0  0
  143.5412  138.4273  140.9797 H   0  0  0  0  0  0  0  0  0  0  0  0
  141.0377  136.1793  141.9372 H   0  0  0  0  0  0  0  0  0  0  0  0
  141.1665  137.9859  141.7255 H   0  0  0  0  0  0  0  0  0  0  0  0
  142.4808  137.0145  142.5232 H   0  0  0  0  0  0  0  0  0  0  0  0
  142.0979  135.5845  138.7960 H   0  0  0  0  0  0  0  0  0  0  0  0
  143.2720  135.1030  140.0462 H   0  0  0  0  0  0  0  0  0  0  0  0
  140.2617  134.9581  140.2051 H   0  0  0  0  0  0  0  0  0  0  0  0
  141.2984  134.7842  141.6506 H   0  0  0  0  0  0  0  0  0  0  0  0
  142.6054  133.0004  140.2912 H   0  0  0  0  0  0  0  0  0  0  0  0
  140.9423  132.5723  140.8436 H   0  0  0  0  0  0  0  0  0  0  0  0
  138.1030  133.7572  136.0878 H   0  0  0  0  0  0  0  0  0  0  0  0
  138.4411  132.7261  133.9030 H   0  0  0  0  0  0  0  0  0  0  0  0
  140.4417  131.3535  133.4695 H   0  0  0  0  0  0  0  0  0  0  0  0
  142.0853  131.0431  135.2729 H   0  0  0  0  0  0  0  0  0  0  0  0
  142.6257  131.7278  137.9481 H   0  0  0  0  0  0  0  0  0  0  0  0
  144.8901  138.8226  138.4778 H   0  0  0  0  0  0  0  0  0  0  0  0
  146.4378  138.3738  137.7817 H   0  0  0  0  0  0  0  0  0  0  0  0
  147.3214  139.7056  139.3490 H   0  0  0  0  0  0  0  0  0  0  0  0
  145.8741  139.7544  140.3497 H   0  0  0  0  0  0  0  0  0  0  0  0
  147.6183  139.7723  142.1561 H   0  0  0  0  0  0  0  0  0  0  0  0
  149.1528  135.9416  143.2946 H   0  0  0  0  0  0  0  0  0  0  0  0
  148.2801  134.9772  141.1853 H   0  0  0  0  0  0  0  0  0  0  0  0
  147.0101  135.1328  139.3063 H   0  0  0  0  0  0  0  0  0  0  0  0
  147.9477  137.7664  138.0534 H   0  0  0  0  0  0  0  0  0  0  0  0
  149.8067  137.5016  139.0857 H   0  0  0  0  0  0  0  0  0  0  0  0
  150.0152  135.9280  138.2153 H   0  0  0  0  0  0  0  0  0  0  0  0
  149.2664  135.9166  139.8712 H   0  0  0  0  0  0  0  0  0  0  0  0
  147.6975  136.4387  136.0958 H   0  0  0  0  0  0  0  0  0  0  0  0
  147.3004  135.0244  137.0792 H   0  0  0  0  0  0  0  0  0  0  0  0
  148.9848  135.3927  136.7159 H   0  0  0  0  0  0  0  0  0  0  0  0
  1  2  1  0
  2  3  1  0
  3  4  1  0
  4  5  2  0
  4  6  1  0
  7  6  1  6
  7  8  1  0
  8  9  1  0
  9 10  1  0
 10 11  1  0
 10 12  1  0
 12 13  1  0
 13 14  1  0
 14 15  1  0
 15 16  2  0
 16 17  1  0
 17 18  2  0
 18 19  1  0
 19 20  2  0
 20 21  1  0
 21 22  2  0
 22 23  1  0
  7 24  1  0
 24 25  1  0
 25 26  1  0
 26 27  2  0
 27 28  1  0
 28 29  1  0
 28 30  2  0
 30 31  1  0
 31 32  2  0
 32 33  1  0
 33 34  1  0
 34 35  1  0
 34 36  1  0
 33  7  1  0
 23 15  1  0
 32 26  1  0
 22 17  1  0
  1 37  1  0
  1 38  1  0
  1 39  1  0
  3 40  1  0
  3 41  1  0
  8 42  1  0
  8 43  1  0
  9 44  1  0
  9 45  1  0
 11 46  1  0
 11 47  1  0
 11 48  1  0
 12 49  1  0
 12 50  1  0
 13 51  1  0
 13 52  1  0
 14 53  1  0
 14 54  1  0
 18 55  1  0
 19 56  1  0
 20 57  1  0
 21 58  1  0
 23 59  1  0
 24 60  1  0
 24 61  1  0
 25 62  1  0
 25 63  1  0
 27 64  1  0
 30 65  1  0
 31 66  1  0
 33 67  1  1
 34 68  1  0
 35 69  1  0
 35 70  1  0
 35 71  1  0
 36 72  1  0
 36 73  1  0
 36 74  1  0
M  END
>  <docking_score>  (3) 
-5.9729999999999999

$$$$
