
     RDKit          3D

 67 69  0  0  0  0  0  0  0  0999 V2000
  135.9053  111.1952  134.7965 C   0  0  0  0  0  0  0  0  0  0  0  0
  136.8133  112.3891  134.5781 C   0  0  0  0  0  0  0  0  0  0  0  0
  136.8402  112.7047  133.0973 C   0  0  2  0  0  0  0  0  0  0  0  0
  138.2013  112.3215  132.5672 C   0  0  0  0  0  0  0  0  0  0  0  0
  136.6146  114.1655  132.8220 C   0  0  2  0  0  0  0  0  0  0  0  0
  136.4709  114.9248  134.0537 N   0  0  0  0  0  0  0  0  0  0  0  0
  137.1000  116.1580  134.2302 C   0  0  0  0  0  0  0  0  0  0  0  0
  137.8154  116.6504  133.3278 O   0  0  0  0  0  0  0  0  0  0  0  0
  136.9525  116.8937  135.4283 N   0  0  0  0  0  0  0  0  0  0  0  0
  135.7325  117.6261  135.6502 C   0  0  0  0  0  0  0  0  0  0  0  0
  135.4706  117.6578  137.0985 C   0  0  0  0  0  0  0  0  0  0  0  0
  136.6540  118.2595  137.9124 C   0  0  0  0  0  0  0  0  0  0  0  0
  137.6307  117.1966  137.7868 C   0  0  0  0  0  0  0  0  0  0  0  0
  137.9879  116.8856  136.3664 C   0  0  0  0  0  0  0  0  0  0  0  0
  137.0618  119.4270  136.9188 C   0  0  0  0  0  0  0  0  0  0  0  0
  137.0712  119.6234  138.2176 N   0  0  0  0  0  0  0  0  0  0  0  0
  137.0426  118.9090  139.3821 C   0  0  0  0  0  0  0  0  0  0  0  0
  135.7396  118.6378  140.1193 C   0  0  0  0  0  0  0  0  0  0  0  0
  138.5038  119.1860  139.7120 C   0  0  0  0  0  0  0  0  0  0  0  0
  136.1390  119.3777  138.6871 C   0  0  2  0  0  0  0  0  0  0  0  0
  136.1722  120.7085  139.4467 C   0  0  0  0  0  0  0  0  0  0  0  0
  135.3164  121.7414  138.9791 C   0  0  0  0  0  0  0  0  0  0  0  0
  135.2646  122.9165  139.6341 C   0  0  0  0  0  0  0  0  0  0  0  0
  136.0253  123.0714  140.7075 C   0  0  0  0  0  0  0  0  0  0  0  0
  135.9253  124.6164  141.5132 Cl  0  0  0  0  0  0  0  0  0  0  0  0
  136.8664  122.1510  141.2256 C   0  0  0  0  0  0  0  0  0  0  0  0
  136.9463  121.0074  140.6269 C   0  0  0  0  0  0  0  0  0  0  0  0
  135.3330  114.2786  132.0566 C   0  0  0  0  0  0  0  0  0  0  0  0
  134.3229  113.6116  132.3992 O   0  0  0  0  0  0  0  0  0  0  0  0
  135.2226  115.1187  130.9512 O   0  0  0  0  0  0  0  0  0  0  0  0
  134.4878  114.6723  129.8285 C   0  0  0  0  0  0  0  0  0  0  0  0
  134.9165  111.5379  135.1803 H   0  0  0  0  0  0  0  0  0  0  0  0
  135.7733  110.6663  133.8344 H   0  0  0  0  0  0  0  0  0  0  0  0
  136.3571  110.5150  135.5620 H   0  0  0  0  0  0  0  0  0  0  0  0
  136.4059  113.2786  135.1030 H   0  0  0  0  0  0  0  0  0  0  0  0
  137.8429  112.1883  134.8979 H   0  0  0  0  0  0  0  0  0  0  0  0
  136.0572  112.1303  132.5660 H   0  0  0  0  0  0  0  0  0  0  0  0
  138.2599  111.2319  132.4386 H   0  0  0  0  0  0  0  0  0  0  0  0
  139.0168  112.6910  133.2253 H   0  0  0  0  0  0  0  0  0  0  0  0
  138.3388  112.8414  131.5848 H   0  0  0  0  0  0  0  0  0  0  0  0
  137.4106  114.5936  132.1769 H   0  0  0  0  0  0  0  0  0  0  0  0
  135.8873  114.5097  134.7861 H   0  0  0  0  0  0  0  0  0  0  0  0
  134.8551  117.0542  135.2092 H   0  0  0  0  0  0  0  0  0  0  0  0
  135.7596  118.5547  135.1175 H   0  0  0  0  0  0  0  0  0  0  0  0
  135.3320  116.6436  137.5064 H   0  0  0  0  0  0  0  0  0  0  0  0
  134.5654  118.2740  137.2625 H   0  0  0  0  0  0  0  0  0  0  0  0
  137.1573  116.2317  138.2068 H   0  0  0  0  0  0  0  0  0  0  0  0
  138.7081  117.2822  138.1495 H   0  0  0  0  0  0  0  0  0  0  0  0
  138.8444  117.4959  136.0532 H   0  0  0  0  0  0  0  0  0  0  0  0
  138.4318  115.8231  136.4887 H   0  0  0  0  0  0  0  0  0  0  0  0
  137.7538  118.9659  136.2690 H   0  0  0  0  0  0  0  0  0  0  0  0
  136.2161  119.9355  136.4648 H   0  0  0  0  0  0  0  0  0  0  0  0
  137.2590  117.7883  139.5604 H   0  0  0  0  0  0  0  0  0  0  0  0
  134.9855  118.1134  139.6171 H   0  0  0  0  0  0  0  0  0  0  0  0
  135.2794  119.3427  140.7965 H   0  0  0  0  0  0  0  0  0  0  0  0
  135.7077  117.8739  140.9910 H   0  0  0  0  0  0  0  0  0  0  0  0
  139.0371  118.6764  140.4334 H   0  0  0  0  0  0  0  0  0  0  0  0
  139.2823  119.3001  138.9213 H   0  0  0  0  0  0  0  0  0  0  0  0
  138.5774  120.2799  140.0329 H   0  0  0  0  0  0  0  0  0  0  0  0
  135.3585  119.6686  137.7453 H   0  0  0  0  0  0  0  0  0  0  0  0
  134.7612  121.4868  138.0956 H   0  0  0  0  0  0  0  0  0  0  0  0
  134.5983  123.6346  139.2192 H   0  0  0  0  0  0  0  0  0  0  0  0
  137.4918  122.2758  142.1038 H   0  0  0  0  0  0  0  0  0  0  0  0
  137.6372  120.3225  141.0811 H   0  0  0  0  0  0  0  0  0  0  0  0
  134.3220  115.5507  129.1544 H   0  0  0  0  0  0  0  0  0  0  0  0
  133.5328  114.2289  130.1518 H   0  0  0  0  0  0  0  0  0  0  0  0
  135.1151  113.8946  129.3244 H   0  0  0  0  0  0  0  0  0  0  0  0
  1  2  1  0
  2  3  1  0
  3  4  1  0
  3  5  1  0
  5  6  1  0
  6  7  1  0
  7  8  2  0
  7  9  1  0
  9 10  1  0
 10 11  1  0
 11 12  1  0
 12 13  1  0
 13 14  1  0
 12 15  1  0
 15 16  1  0
 16 17  1  0
 17 18  1  0
 17 19  1  0
 16 20  1  0
 20 21  1  0
 21 22  2  0
 22 23  1  0
 23 24  2  0
 24 25  1  0
 24 26  1  0
 26 27  2  0
  5 28  1  0
 28 29  2  0
 28 30  1  0
 30 31  1  0
 14  9  1  0
 27 21  1  0
 20 12  1  0
  1 32  1  0
  1 33  1  0
  1 34  1  0
  2 35  1  0
  2 36  1  0
  3 37  1  6
  4 38  1  0
  4 39  1  0
  4 40  1  0
  5 41  1  6
  6 42  1  0
 10 43  1  0
 10 44  1  0
 11 45  1  0
 11 46  1  0
 13 47  1  0
 13 48  1  0
 14 49  1  0
 14 50  1  0
 15 51  1  0
 15 52  1  0
 17 53  1  0
 18 54  1  0
 18 55  1  0
 18 56  1  0
 19 57  1  0
 19 58  1  0
 19 59  1  0
 20 60  1  6
 22 61  1  0
 23 62  1  0
 26 63  1  0
 27 64  1  0
 31 65  1  0
 31 66  1  0
 31 67  1  0
M  END
>  <docking_score>  (1) 
-6.7320000000000002

$$$$

     RDKit          3D

 67 69  0  0  0  0  0  0  0  0999 V2000
  137.9766  131.0598  139.5155 C   0  0  0  0  0  0  0  0  0  0  0  0
  138.2127  132.5120  139.8803 C   0  0  0  0  0  0  0  0  0  0  0  0
  137.7094  132.7385  141.2904 C   0  0  2  0  0  0  0  0  0  0  0  0
  136.7387  133.8948  141.2551 C   0  0  0  0  0  0  0  0  0  0  0  0
  138.8209  133.0775  142.2444 C   0  0  2  0  0  0  0  0  0  0  0  0
  139.9553  133.6695  141.5536 N   0  0  0  0  0  0  0  0  0  0  0  0
  140.2572  135.0267  141.6734 C   0  0  0  0  0  0  0  0  0  0  0  0
  139.5534  135.7825  142.3820 O   0  0  0  0  0  0  0  0  0  0  0  0
  141.3643  135.5955  141.0030 N   0  0  0  0  0  0  0  0  0  0  0  0
  142.0567  134.8118  140.0128 C   0  0  0  0  0  0  0  0  0  0  0  0
  142.5912  135.7273  138.9913 C   0  0  0  0  0  0  0  0  0  0  0  0
  143.5114  136.8304  139.5924 C   0  0  0  0  0  0  0  0  0  0  0  0
  142.5319  137.6504  140.2761 C   0  0  0  0  0  0  0  0  0  0  0  0
  141.7526  136.9015  141.3123 C   0  0  0  0  0  0  0  0  0  0  0  0
  144.2656  135.9517  140.6766 C   0  0  0  0  0  0  0  0  0  0  0  0
  144.9154  136.8612  139.9865 N   0  0  0  0  0  0  0  0  0  0  0  0
  144.6663  137.9424  139.1888 C   0  0  0  0  0  0  0  0  0  0  0  0
  144.3751  137.7872  137.7036 C   0  0  0  0  0  0  0  0  0  0  0  0
  145.3717  138.9231  140.1168 C   0  0  0  0  0  0  0  0  0  0  0  0
  144.8018  136.7457  138.9265 C   0  0  2  0  0  0  0  0  0  0  0  0
  146.3162  136.9014  138.7486 C   0  0  0  0  0  0  0  0  0  0  0  0
  147.1375  136.5332  139.8476 C   0  0  0  0  0  0  0  0  0  0  0  0
  148.4774  136.6012  139.7351 C   0  0  0  0  0  0  0  0  0  0  0  0
  148.9911  137.0158  138.5865 C   0  0  0  0  0  0  0  0  0  0  0  0
  150.7325  137.0927  138.4980 Cl  0  0  0  0  0  0  0  0  0  0  0  0
  148.2939  137.3853  137.4910 C   0  0  0  0  0  0  0  0  0  0  0  0
  147.0033  137.3345  137.5563 C   0  0  0  0  0  0  0  0  0  0  0  0
  139.2765  131.7943  142.8666 C   0  0  0  0  0  0  0  0  0  0  0  0
  140.4860  131.4524  142.8138 O   0  0  0  0  0  0  0  0  0  0  0  0
  138.3814  130.9480  143.5168 O   0  0  0  0  0  0  0  0  0  0  0  0
  138.8288  129.6709  143.9271 C   0  0  0  0  0  0  0  0  0  0  0  0
  138.8687  130.4512  139.7914 H   0  0  0  0  0  0  0  0  0  0  0  0
  137.0874  130.6944  140.0621 H   0  0  0  0  0  0  0  0  0  0  0  0
  137.8248  130.9704  138.4101 H   0  0  0  0  0  0  0  0  0  0  0  0
  139.3004  132.7346  139.8728 H   0  0  0  0  0  0  0  0  0  0  0  0
  137.6723  133.1973  139.2162 H   0  0  0  0  0  0  0  0  0  0  0  0
  137.1975  131.8325  141.6677 H   0  0  0  0  0  0  0  0  0  0  0  0
  136.6429  134.2719  140.2275 H   0  0  0  0  0  0  0  0  0  0  0  0
  137.0409  134.7056  141.9522 H   0  0  0  0  0  0  0  0  0  0  0  0
  135.7526  133.5183  141.6294 H   0  0  0  0  0  0  0  0  0  0  0  0
  138.4716  133.7280  143.0737 H   0  0  0  0  0  0  0  0  0  0  0  0
  140.5206  133.0425  140.9735 H   0  0  0  0  0  0  0  0  0  0  0  0
  141.3155  134.1555  139.4548 H   0  0  0  0  0  0  0  0  0  0  0  0
  142.7321  134.1312  140.4896 H   0  0  0  0  0  0  0  0  0  0  0  0
  141.7849  136.2775  138.4801 H   0  0  0  0  0  0  0  0  0  0  0  0
  143.1725  135.1219  138.2692 H   0  0  0  0  0  0  0  0  0  0  0  0
  141.7567  137.9982  139.4952 H   0  0  0  0  0  0  0  0  0  0  0  0
  142.8032  138.5222  140.9588 H   0  0  0  0  0  0  0  0  0  0  0  0
  142.2575  136.9715  142.2841 H   0  0  0  0  0  0  0  0  0  0  0  0
  140.8319  137.5948  141.4253 H   0  0  0  0  0  0  0  0  0  0  0  0
  143.6423  136.0208  141.5254 H   0  0  0  0  0  0  0  0  0  0  0  0
  144.5281  134.9556  140.3322 H   0  0  0  0  0  0  0  0  0  0  0  0
  143.7610  138.6601  139.1881 H   0  0  0  0  0  0  0  0  0  0  0  0
  143.4411  137.4103  137.4181 H   0  0  0  0  0  0  0  0  0  0  0  0
  145.1127  137.4692  136.9811 H   0  0  0  0  0  0  0  0  0  0  0  0
  144.2155  138.7225  137.0370 H   0  0  0  0  0  0  0  0  0  0  0  0
  145.3918  138.8299  141.1441 H   0  0  0  0  0  0  0  0  0  0  0  0
  146.4074  139.2887  139.9220 H   0  0  0  0  0  0  0  0  0  0  0  0
  144.9065  139.9514  139.9402 H   0  0  0  0  0  0  0  0  0  0  0  0
  144.6902  135.4945  138.8729 H   0  0  0  0  0  0  0  0  0  0  0  0
  146.5928  136.2231  140.7198 H   0  0  0  0  0  0  0  0  0  0  0  0
  149.0179  136.3069  140.6028 H   0  0  0  0  0  0  0  0  0  0  0  0
  148.7121  137.7268  136.5494 H   0  0  0  0  0  0  0  0  0  0  0  0
  146.5065  137.6483  136.6576 H   0  0  0  0  0  0  0  0  0  0  0  0
  138.5449  128.9352  143.1324 H   0  0  0  0  0  0  0  0  0  0  0  0
  138.3810  129.4057  144.8978 H   0  0  0  0  0  0  0  0  0  0  0  0
  139.9411  129.7394  144.0292 H   0  0  0  0  0  0  0  0  0  0  0  0
  1  2  1  0
  2  3  1  0
  3  4  1  0
  3  5  1  0
  5  6  1  0
  6  7  1  0
  7  8  2  0
  7  9  1  0
  9 10  1  0
 10 11  1  0
 11 12  1  0
 12 13  1  0
 13 14  1  0
 12 15  1  0
 15 16  1  0
 16 17  1  0
 17 18  1  0
 17 19  1  0
 16 20  1  0
 20 21  1  0
 21 22  2  0
 22 23  1  0
 23 24  2  0
 24 25  1  0
 24 26  1  0
 26 27  2  0
  5 28  1  0
 28 29  2  0
 28 30  1  0
 30 31  1  0
 14  9  1  0
 27 21  1  0
 20 12  1  0
  1 32  1  0
  1 33  1  0
  1 34  1  0
  2 35  1  0
  2 36  1  0
  3 37  1  1
  4 38  1  0
  4 39  1  0
  4 40  1  0
  5 41  1  1
  6 42  1  0
 10 43  1  0
 10 44  1  0
 11 45  1  0
 11 46  1  0
 13 47  1  0
 13 48  1  0
 14 49  1  0
 14 50  1  0
 15 51  1  0
 15 52  1  0
 17 53  1  0
 18 54  1  0
 18 55  1  0
 18 56  1  0
 19 57  1  0
 19 58  1  0
 19 59  1  0
 20 60  1  1
 22 61  1  0
 23 62  1  0
 26 63  1  0
 27 64  1  0
 31 65  1  0
 31 66  1  0
 31 67  1  0
M  END
>  <docking_score>  (2) 
-6.431

$$$$
