
     RDKit          3D

 68 71  0  0  0  0  0  0  0  0999 V2000
  128.3063  134.1697  137.6048 C   0  0  0  0  0  0  0  0  0  0  0  0
  128.3325  133.8215  139.0791 C   0  0  0  0  0  0  0  0  0  0  0  0
  128.4352  135.0386  139.9526 C   0  0  2  0  0  0  0  0  0  0  0  0
  128.3849  136.2625  139.0835 C   0  0  0  0  0  0  0  0  0  0  0  0
  129.6967  135.0825  140.7740 C   0  0  2  0  0  0  0  0  0  0  0  0
  130.7146  134.3373  140.0203 N   0  0  0  0  0  0  0  0  0  0  0  0
  131.7803  135.0018  139.3777 C   0  0  0  0  0  0  0  0  0  0  0  0
  131.8651  136.2828  139.4495 O   0  0  0  0  0  0  0  0  0  0  0  0
  132.7542  134.2984  138.6589 N   0  0  0  0  0  0  0  0  0  0  0  0
  132.6826  132.8317  138.5826 C   0  0  0  0  0  0  0  0  0  0  0  0
  134.1069  132.2922  138.4182 C   0  0  0  0  0  0  0  0  0  0  0  0
  134.7819  132.8682  137.2386 C   0  0  0  0  0  0  0  0  0  0  0  0
  134.2370  134.1771  136.7842 C   0  0  0  0  0  0  0  0  0  0  0  0
  133.8249  135.0023  137.9953 C   0  0  0  0  0  0  0  0  0  0  0  0
  136.2896  132.9345  137.4585 C   0  0  0  0  0  0  0  0  0  0  0  0
  136.5245  132.4744  136.1109 N   0  0  0  0  0  0  0  0  0  0  0  0
  137.6344  132.5066  135.2373 C   0  0  0  0  0  0  0  0  0  0  0  0
  138.8585  132.0822  135.6747 C   0  0  0  0  0  0  0  0  0  0  0  0
  139.9420  132.1199  134.8445 C   0  0  0  0  0  0  0  0  0  0  0  0
  139.8239  132.5835  133.5573 C   0  0  0  0  0  0  0  0  0  0  0  0
  138.5834  133.0121  133.1177 C   0  0  0  0  0  0  0  0  0  0  0  0
  138.3980  133.4842  131.8483 F   0  0  0  0  0  0  0  0  0  0  0  0
  137.4960  132.9728  133.9558 C   0  0  0  0  0  0  0  0  0  0  0  0
  135.1554  131.9943  136.0736 C   0  0  1  0  0  0  0  0  0  0  0  0
  135.0173  130.5521  136.2393 C   0  0  0  0  0  0  0  0  0  0  0  0
  134.0409  129.8551  135.5709 C   0  0  0  0  0  0  0  0  0  0  0  0
  133.8535  128.4866  135.7200 C   0  0  0  0  0  0  0  0  0  0  0  0
  134.6638  127.7636  136.5667 C   0  0  0  0  0  0  0  0  0  0  0  0
  134.4422  126.0237  136.7693 Cl  0  0  0  0  0  0  0  0  0  0  0  0
  135.6491  128.4446  137.2460 C   0  0  0  0  0  0  0  0  0  0  0  0
  135.8203  129.8030  137.0859 C   0  0  0  0  0  0  0  0  0  0  0  0
  129.4946  134.4118  142.0748 C   0  0  0  0  0  0  0  0  0  0  0  0
  129.2215  135.0702  143.1093 O   0  0  0  0  0  0  0  0  0  0  0  0
  129.6003  133.0403  142.1889 O   0  0  0  0  0  0  0  0  0  0  0  0
  128.5927  132.2612  142.8097 C   0  0  0  0  0  0  0  0  0  0  0  0
  128.2458  135.2662  137.5044 H   0  0  0  0  0  0  0  0  0  0  0  0
  127.4284  133.6956  137.1640 H   0  0  0  0  0  0  0  0  0  0  0  0
  129.2621  133.8292  137.1763 H   0  0  0  0  0  0  0  0  0  0  0  0
  127.5369  133.1233  139.3601 H   0  0  0  0  0  0  0  0  0  0  0  0
  129.2952  133.2541  139.2319 H   0  0  0  0  0  0  0  0  0  0  0  0
  127.5504  135.0286  140.6304 H   0  0  0  0  0  0  0  0  0  0  0  0
  128.3478  137.1754  139.7153 H   0  0  0  0  0  0  0  0  0  0  0  0
  129.3200  136.3018  138.4900 H   0  0  0  0  0  0  0  0  0  0  0  0
  127.5325  136.1778  138.3948 H   0  0  0  0  0  0  0  0  0  0  0  0
  130.0711  136.1204  140.8900 H   0  0  0  0  0  0  0  0  0  0  0  0
  130.6172  133.3184  139.9781 H   0  0  0  0  0  0  0  0  0  0  0  0
  132.0925  132.5005  137.7312 H   0  0  0  0  0  0  0  0  0  0  0  0
  132.3108  132.4959  139.5702 H   0  0  0  0  0  0  0  0  0  0  0  0
  134.6371  132.7044  139.3390 H   0  0  0  0  0  0  0  0  0  0  0  0
  134.1126  131.2220  138.5565 H   0  0  0  0  0  0  0  0  0  0  0  0
  133.3932  134.1010  136.0863 H   0  0  0  0  0  0  0  0  0  0  0  0
  135.0663  134.7281  136.2601 H   0  0  0  0  0  0  0  0  0  0  0  0
  133.5642  136.0037  137.6256 H   0  0  0  0  0  0  0  0  0  0  0  0
  134.6995  135.0961  138.6873 H   0  0  0  0  0  0  0  0  0  0  0  0
  136.6696  133.9477  137.6814 H   0  0  0  0  0  0  0  0  0  0  0  0
  136.6363  132.1569  138.1747 H   0  0  0  0  0  0  0  0  0  0  0  0
  138.9835  131.7136  136.6775 H   0  0  0  0  0  0  0  0  0  0  0  0
  140.9271  131.7802  135.1919 H   0  0  0  0  0  0  0  0  0  0  0  0
  140.6503  132.6280  132.8789 H   0  0  0  0  0  0  0  0  0  0  0  0
  136.5260  133.3232  133.5692 H   0  0  0  0  0  0  0  0  0  0  0  0
  134.6788  132.3253  135.1089 H   0  0  0  0  0  0  0  0  0  0  0  0
  133.3606  130.3282  134.8829 H   0  0  0  0  0  0  0  0  0  0  0  0
  133.0793  127.9479  135.1870 H   0  0  0  0  0  0  0  0  0  0  0  0
  136.2967  127.8646  137.9226 H   0  0  0  0  0  0  0  0  0  0  0  0
  136.6203  130.2841  137.6647 H   0  0  0  0  0  0  0  0  0  0  0  0
  129.1435  131.4594  143.3722 H   0  0  0  0  0  0  0  0  0  0  0  0
  127.9749  131.7318  142.0703 H   0  0  0  0  0  0  0  0  0  0  0  0
  128.0188  132.8272  143.5639 H   0  0  0  0  0  0  0  0  0  0  0  0
  1  2  1  0
  2  3  1  0
  3  4  1  0
  3  5  1  0
  5  6  1  0
  6  7  1  0
  7  8  2  0
  7  9  1  0
  9 10  1  0
 10 11  1  0
 11 12  1  0
 12 13  1  0
 13 14  1  0
 12 15  1  0
 15 16  1  0
 16 17  1  0
 17 18  2  0
 18 19  1  0
 19 20  2  0
 20 21  1  0
 21 22  1  0
 21 23  2  0
 16 24  1  0
 24 25  1  0
 25 26  2  0
 26 27  1  0
 27 28  2  0
 28 29  1  0
 28 30  1  0
 30 31  2  0
  5 32  1  0
 32 33  2  0
 32 34  1  0
 34 35  1  0
 14  9  1  0
 23 17  1  0
 31 25  1  0
 24 12  1  0
  1 36  1  0
  1 37  1  0
  1 38  1  0
  2 39  1  0
  2 40  1  0
  3 41  1  1
  4 42  1  0
  4 43  1  0
  4 44  1  0
  5 45  1  1
  6 46  1  0
 10 47  1  0
 10 48  1  0
 11 49  1  0
 11 50  1  0
 13 51  1  0
 13 52  1  0
 14 53  1  0
 14 54  1  0
 15 55  1  0
 15 56  1  0
 18 57  1  0
 19 58  1  0
 20 59  1  0
 23 60  1  0
 24 61  1  6
 26 62  1  0
 27 63  1  0
 30 64  1  0
 31 65  1  0
 35 66  1  0
 35 67  1  0
 35 68  1  0
M  END
>  <docking_score>  (1) 
-7.3330000000000002

$$$$

     RDKit          3D

 68 71  0  0  0  0  0  0  0  0999 V2000
  136.4732  125.0103  141.9979 C   0  0  0  0  0  0  0  0  0  0  0  0
  136.9308  124.1679  140.8246 C   0  0  0  0  0  0  0  0  0  0  0  0
  136.3878  122.7688  140.8786 C   0  0  2  0  0  0  0  0  0  0  0  0
  137.5155  121.8039  140.6481 C   0  0  0  0  0  0  0  0  0  0  0  0
  135.3110  122.5038  139.8597 C   0  0  2  0  0  0  0  0  0  0  0  0
  134.0522  122.9868  140.4440 N   0  0  0  0  0  0  0  0  0  0  0  0
  133.4593  124.1910  140.0095 C   0  0  0  0  0  0  0  0  0  0  0  0
  134.0287  124.8818  139.0865 O   0  0  0  0  0  0  0  0  0  0  0  0
  132.2597  124.6567  140.5607 N   0  0  0  0  0  0  0  0  0  0  0  0
  132.0479  126.1027  140.7228 C   0  0  0  0  0  0  0  0  0  0  0  0
  131.1064  126.3169  141.9121 C   0  0  0  0  0  0  0  0  0  0  0  0
  129.8309  125.5938  141.7427 C   0  0  0  0  0  0  0  0  0  0  0  0
  129.8909  124.4298  140.8164 C   0  0  0  0  0  0  0  0  0  0  0  0
  131.2334  123.7286  140.9701 C   0  0  0  0  0  0  0  0  0  0  0  0
  129.2481  125.2031  143.0969 C   0  0  0  0  0  0  0  0  0  0  0  0
  127.9271  125.5850  142.6586 N   0  0  0  0  0  0  0  0  0  0  0  0
  126.6183  125.3014  143.1090 C   0  0  0  0  0  0  0  0  0  0  0  0
  126.4292  124.4419  144.1557 C   0  0  0  0  0  0  0  0  0  0  0  0
  125.1689  124.1495  144.5928 C   0  0  0  0  0  0  0  0  0  0  0  0
  124.0697  124.7113  143.9913 C   0  0  0  0  0  0  0  0  0  0  0  0
  124.2648  125.5809  142.9323 C   0  0  0  0  0  0  0  0  0  0  0  0
  123.2136  126.1743  142.2908 F   0  0  0  0  0  0  0  0  0  0  0  0
  125.5339  125.8725  142.4956 C   0  0  0  0  0  0  0  0  0  0  0  0
  128.5413  126.3514  141.5901 C   0  0  1  0  0  0  0  0  0  0  0  0
  128.5720  127.7909  141.8211 C   0  0  0  0  0  0  0  0  0  0  0  0
  129.2485  128.3195  142.8931 C   0  0  0  0  0  0  0  0  0  0  0  0
  129.2810  129.6807  143.1688 C   0  0  0  0  0  0  0  0  0  0  0  0
  128.6174  130.5699  142.3532 C   0  0  0  0  0  0  0  0  0  0  0  0
  128.6473  132.3035  142.6864 Cl  0  0  0  0  0  0  0  0  0  0  0  0
  127.9334  130.0593  141.2728 C   0  0  0  0  0  0  0  0  0  0  0  0
  127.9117  128.7054  141.0146 C   0  0  0  0  0  0  0  0  0  0  0  0
  135.1815  121.0545  139.6041 C   0  0  0  0  0  0  0  0  0  0  0  0
  134.4305  120.3354  140.3091 O   0  0  0  0  0  0  0  0  0  0  0  0
  135.8837  120.4499  138.5811 O   0  0  0  0  0  0  0  0  0  0  0  0
  135.8763  119.0450  138.3967 C   0  0  0  0  0  0  0  0  0  0  0  0
  135.4827  124.6505  142.3227 H   0  0  0  0  0  0  0  0  0  0  0  0
  136.4135  126.0467  141.6631 H   0  0  0  0  0  0  0  0  0  0  0  0
  137.1934  124.8438  142.8144 H   0  0  0  0  0  0  0  0  0  0  0  0
  136.7922  124.6750  139.8638 H   0  0  0  0  0  0  0  0  0  0  0  0
  138.0471  124.0670  140.9505 H   0  0  0  0  0  0  0  0  0  0  0  0
  135.9753  122.6189  141.9031 H   0  0  0  0  0  0  0  0  0  0  0  0
  138.4728  122.2493  140.9932 H   0  0  0  0  0  0  0  0  0  0  0  0
  137.3251  120.8996  141.2598 H   0  0  0  0  0  0  0  0  0  0  0  0
  137.5296  121.5164  139.5873 H   0  0  0  0  0  0  0  0  0  0  0  0
  135.4812  123.0814  138.9278 H   0  0  0  0  0  0  0  0  0  0  0  0
  133.6253  122.4165  141.1801 H   0  0  0  0  0  0  0  0  0  0  0  0
  131.5891  126.5445  139.8412 H   0  0  0  0  0  0  0  0  0  0  0  0
  133.0346  126.5231  140.9986 H   0  0  0  0  0  0  0  0  0  0  0  0
  131.6653  125.8101  142.7664 H   0  0  0  0  0  0  0  0  0  0  0  0
  131.0865  127.3618  142.1812 H   0  0  0  0  0  0  0  0  0  0  0  0
  129.7250  124.6796  139.7605 H   0  0  0  0  0  0  0  0  0  0  0  0
  129.0882  123.7051  141.1271 H   0  0  0  0  0  0  0  0  0  0  0  0
  131.1801  122.8037  140.3791 H   0  0  0  0  0  0  0  0  0  0  0  0
  131.3807  123.4547  142.0453 H   0  0  0  0  0  0  0  0  0  0  0  0
  129.3682  124.1342  143.3491 H   0  0  0  0  0  0  0  0  0  0  0  0
  129.5788  125.8950  143.9030 H   0  0  0  0  0  0  0  0  0  0  0  0
  127.2699  123.9855  144.6476 H   0  0  0  0  0  0  0  0  0  0  0  0
  125.0126  123.4594  145.4329 H   0  0  0  0  0  0  0  0  0  0  0  0
  123.0679  124.5054  144.3061 H   0  0  0  0  0  0  0  0  0  0  0  0
  125.6478  126.5687  141.6497 H   0  0  0  0  0  0  0  0  0  0  0  0
  128.0109  126.1208  140.6242 H   0  0  0  0  0  0  0  0  0  0  0  0
  129.8021  127.7085  143.5860 H   0  0  0  0  0  0  0  0  0  0  0  0
  129.8182  130.0855  144.0181 H   0  0  0  0  0  0  0  0  0  0  0  0
  127.4035  130.7720  140.6210 H   0  0  0  0  0  0  0  0  0  0  0  0
  127.3397  128.3657  140.1406 H   0  0  0  0  0  0  0  0  0  0  0  0
  134.8774  118.7017  138.7803 H   0  0  0  0  0  0  0  0  0  0  0  0
  136.6232  118.5478  139.0320 H   0  0  0  0  0  0  0  0  0  0  0  0
  135.9140  118.7534  137.3327 H   0  0  0  0  0  0  0  0  0  0  0  0
  1  2  1  0
  2  3  1  0
  3  4  1  0
  3  5  1  0
  5  6  1  0
  6  7  1  0
  7  8  2  0
  7  9  1  0
  9 10  1  0
 10 11  1  0
 11 12  1  0
 12 13  1  0
 13 14  1  0
 12 15  1  0
 15 16  1  0
 16 17  1  0
 17 18  2  0
 18 19  1  0
 19 20  2  0
 20 21  1  0
 21 22  1  0
 21 23  2  0
 16 24  1  0
 24 25  1  0
 25 26  2  0
 26 27  1  0
 27 28  2  0
 28 29  1  0
 28 30  1  0
 30 31  2  0
  5 32  1  0
 32 33  2  0
 32 34  1  0
 34 35  1  0
 14  9  1  0
 23 17  1  0
 31 25  1  0
 24 12  1  0
  1 36  1  0
  1 37  1  0
  1 38  1  0
  2 39  1  0
  2 40  1  0
  3 41  1  1
  4 42  1  0
  4 43  1  0
  4 44  1  0
  5 45  1  6
  6 46  1  0
 10 47  1  0
 10 48  1  0
 11 49  1  0
 11 50  1  0
 13 51  1  0
 13 52  1  0
 14 53  1  0
 14 54  1  0
 15 55  1  0
 15 56  1  0
 18 57  1  0
 19 58  1  0
 20 59  1  0
 23 60  1  0
 24 61  1  6
 26 62  1  0
 27 63  1  0
 30 64  1  0
 31 65  1  0
 35 66  1  0
 35 67  1  0
 35 68  1  0
M  END
>  <docking_score>  (2) 
-7.3040000000000003

$$$$

     RDKit          3D

 68 71  0  0  0  0  0  0  0  0999 V2000
  131.2585  131.3696  135.1172 C   0  0  0  0  0  0  0  0  0  0  0  0
  131.0955  131.9857  136.4917 C   0  0  0  0  0  0  0  0  0  0  0  0
  132.0209  133.1478  136.7111 C   0  0  2  0  0  0  0  0  0  0  0  0
  132.1394  133.9198  135.4282 C   0  0  0  0  0  0  0  0  0  0  0  0
  133.4003  132.7400  137.1572 C   0  0  2  0  0  0  0  0  0  0  0  0
  133.2643  131.4198  137.7882 N   0  0  0  0  0  0  0  0  0  0  0  0
  134.0092  130.3118  137.3325 C   0  0  0  0  0  0  0  0  0  0  0  0
  134.8220  130.4556  136.3466 O   0  0  0  0  0  0  0  0  0  0  0  0
  133.8857  129.0515  137.9294 N   0  0  0  0  0  0  0  0  0  0  0  0
  132.8383  128.8241  138.9360 C   0  0  0  0  0  0  0  0  0  0  0  0
  133.3275  127.7355  139.8964 C   0  0  0  0  0  0  0  0  0  0  0  0
  133.6810  126.4913  139.1854 C   0  0  0  0  0  0  0  0  0  0  0  0
  134.0228  126.6691  137.7473 C   0  0  0  0  0  0  0  0  0  0  0  0
  134.7782  127.9780  137.5641 C   0  0  0  0  0  0  0  0  0  0  0  0
  134.7748  125.7351  139.9323 C   0  0  0  0  0  0  0  0  0  0  0  0
  134.0947  124.4839  139.6979 N   0  0  0  0  0  0  0  0  0  0  0  0
  134.4853  123.1267  139.7381 C   0  0  0  0  0  0  0  0  0  0  0  0
  135.7516  122.7707  139.3644 C   0  0  0  0  0  0  0  0  0  0  0  0
  136.1379  121.4610  139.3866 C   0  0  0  0  0  0  0  0  0  0  0  0
  135.2646  120.4785  139.7837 C   0  0  0  0  0  0  0  0  0  0  0  0
  133.9837  120.8424  140.1615 C   0  0  0  0  0  0  0  0  0  0  0  0
  133.0665  119.9138  140.5675 F   0  0  0  0  0  0  0  0  0  0  0  0
  133.5989  122.1606  140.1377 C   0  0  0  0  0  0  0  0  0  0  0  0
  132.8866  125.2347  139.4100 C   0  0  1  0  0  0  0  0  0  0  0  0
  131.9071  125.2388  140.4905 C   0  0  0  0  0  0  0  0  0  0  0  0
  130.5605  125.2620  140.2223 C   0  0  0  0  0  0  0  0  0  0  0  0
  129.5926  125.2959  141.2183 C   0  0  0  0  0  0  0  0  0  0  0  0
  129.9622  125.3073  142.5448 C   0  0  0  0  0  0  0  0  0  0  0  0
  128.7473  125.3495  143.8252 Cl  0  0  0  0  0  0  0  0  0  0  0  0
  131.3082  125.2841  142.8342 C   0  0  0  0  0  0  0  0  0  0  0  0
  132.2548  125.2510  141.8327 C   0  0  0  0  0  0  0  0  0  0  0  0
  133.9232  133.6869  138.1634 C   0  0  0  0  0  0  0  0  0  0  0  0
  134.4872  133.2777  139.2088 O   0  0  0  0  0  0  0  0  0  0  0  0
  133.8063  135.0502  137.9817 O   0  0  0  0  0  0  0  0  0  0  0  0
  133.5193  135.9266  139.0574 C   0  0  0  0  0  0  0  0  0  0  0  0
  131.7354  130.3818  135.2300 H   0  0  0  0  0  0  0  0  0  0  0  0
  131.8889  132.0340  134.5247 H   0  0  0  0  0  0  0  0  0  0  0  0
  130.2467  131.2272  134.7059 H   0  0  0  0  0  0  0  0  0  0  0  0
  130.0477  132.1824  136.7425 H   0  0  0  0  0  0  0  0  0  0  0  0
  131.4307  131.1879  137.2151 H   0  0  0  0  0  0  0  0  0  0  0  0
  131.5539  133.7934  137.4904 H   0  0  0  0  0  0  0  0  0  0  0  0
  132.9589  133.5000  134.8069 H   0  0  0  0  0  0  0  0  0  0  0  0
  131.1931  133.7975  134.8644 H   0  0  0  0  0  0  0  0  0  0  0  0
  132.2760  134.9849  135.6626 H   0  0  0  0  0  0  0  0  0  0  0  0
  134.0883  132.6205  136.2950 H   0  0  0  0  0  0  0  0  0  0  0  0
  132.6058  131.3364  138.5684 H   0  0  0  0  0  0  0  0  0  0  0  0
  131.9095  128.4859  138.4823 H   0  0  0  0  0  0  0  0  0  0  0  0
  132.7630  129.7673  139.5115 H   0  0  0  0  0  0  0  0  0  0  0  0
  134.2986  128.1763  140.2984 H   0  0  0  0  0  0  0  0  0  0  0  0
  132.6758  127.6833  140.7550 H   0  0  0  0  0  0  0  0  0  0  0  0
  133.1607  126.6435  137.0683 H   0  0  0  0  0  0  0  0  0  0  0  0
  134.7139  125.8307  137.4550 H   0  0  0  0  0  0  0  0  0  0  0  0
  135.1309  128.0002  136.5237 H   0  0  0  0  0  0  0  0  0  0  0  0
  135.6693  127.9825  138.2412 H   0  0  0  0  0  0  0  0  0  0  0  0
  135.7761  125.8184  139.4728 H   0  0  0  0  0  0  0  0  0  0  0  0
  134.7604  125.9592  141.0219 H   0  0  0  0  0  0  0  0  0  0  0  0
  136.4589  123.5169  139.0484 H   0  0  0  0  0  0  0  0  0  0  0  0
  137.1540  121.1707  139.0870 H   0  0  0  0  0  0  0  0  0  0  0  0
  135.5317  119.4427  139.8134 H   0  0  0  0  0  0  0  0  0  0  0  0
  132.5710  122.4100  140.4450 H   0  0  0  0  0  0  0  0  0  0  0  0
  132.4250  124.8348  138.4643 H   0  0  0  0  0  0  0  0  0  0  0  0
  130.1703  125.2503  139.2185 H   0  0  0  0  0  0  0  0  0  0  0  0
  128.5329  125.3142  140.9939 H   0  0  0  0  0  0  0  0  0  0  0  0
  131.6021  125.2928  143.8958 H   0  0  0  0  0  0  0  0  0  0  0  0
  133.3109  125.2422  142.1344 H   0  0  0  0  0  0  0  0  0  0  0  0
  134.3071  136.7262  139.0057 H   0  0  0  0  0  0  0  0  0  0  0  0
  133.6609  135.4353  140.0308 H   0  0  0  0  0  0  0  0  0  0  0  0
  132.5499  136.4418  138.9419 H   0  0  0  0  0  0  0  0  0  0  0  0
  1  2  1  0
  2  3  1  0
  3  4  1  0
  3  5  1  0
  5  6  1  0
  6  7  1  0
  7  8  2  0
  7  9  1  0
  9 10  1  0
 10 11  1  0
 11 12  1  0
 12 13  1  0
 13 14  1  0
 12 15  1  0
 15 16  1  0
 16 17  1  0
 17 18  2  0
 18 19  1  0
 19 20  2  0
 20 21  1  0
 21 22  1  0
 21 23  2  0
 16 24  1  0
 24 25  1  0
 25 26  2  0
 26 27  1  0
 27 28  2  0
 28 29  1  0
 28 30  1  0
 30 31  2  0
  5 32  1  0
 32 33  2  0
 32 34  1  0
 34 35  1  0
 14  9  1  0
 23 17  1  0
 31 25  1  0
 24 12  1  0
  1 36  1  0
  1 37  1  0
  1 38  1  0
  2 39  1  0
  2 40  1  0
  3 41  1  1
  4 42  1  0
  4 43  1  0
  4 44  1  0
  5 45  1  6
  6 46  1  0
 10 47  1  0
 10 48  1  0
 11 49  1  0
 11 50  1  0
 13 51  1  0
 13 52  1  0
 14 53  1  0
 14 54  1  0
 15 55  1  0
 15 56  1  0
 18 57  1  0
 19 58  1  0
 20 59  1  0
 23 60  1  0
 24 61  1  6
 26 62  1  0
 27 63  1  0
 30 64  1  0
 31 65  1  0
 35 66  1  0
 35 67  1  0
 35 68  1  0
M  END
>  <docking_score>  (3) 
-7.1680000000000001

$$$$
