
     RDKit          3D

 65 68  0  0  0  0  0  0  0  0999 V2000
  141.7527  131.7116  139.8152 C   0  0  0  0  0  0  0  0  0  0  0  0
  140.2557  131.8005  140.1395 C   0  0  0  0  0  0  0  0  0  0  0  0
  140.0780  131.8094  141.6231 C   0  0  2  0  0  0  0  0  0  0  0  0
  139.2641  130.5419  141.9647 C   0  0  0  0  0  0  0  0  0  0  0  0
  139.3506  132.9707  142.1872 C   0  0  2  0  0  0  0  0  0  0  0  0
  138.2543  133.3582  141.2873 N   0  0  0  0  0  0  0  0  0  0  0  0
  136.9015  133.1386  141.5914 C   0  0  0  0  0  0  0  0  0  0  0  0
  136.6060  132.5979  142.6719 O   0  0  0  0  0  0  0  0  0  0  0  0
  135.9004  133.5307  140.6882 N   0  0  0  0  0  0  0  0  0  0  0  0
  135.5707  132.7737  139.4921 C   0  0  0  0  0  0  0  0  0  0  0  0
  134.0736  132.5658  139.5133 C   0  0  0  0  0  0  0  0  0  0  0  0
  133.3899  133.9045  139.5033 C   0  0  0  0  0  0  0  0  0  0  0  0
  134.3611  135.0482  139.6805 C   0  0  0  0  0  0  0  0  0  0  0  0
  135.1424  134.7546  140.9377 C   0  0  0  0  0  0  0  0  0  0  0  0
  132.2626  134.0910  140.4363 C   0  0  0  0  0  0  0  0  0  0  0  0
  131.9420  133.7735  141.6205 O   0  0  0  0  0  0  0  0  0  0  0  0
  131.5978  134.8296  139.4316 N   0  0  0  0  0  0  0  0  0  0  0  0
  130.5811  135.8464  139.3436 C   0  0  0  0  0  0  0  0  0  0  0  0
  129.2569  135.4960  139.1085 C   0  0  0  0  0  0  0  0  0  0  0  0
  128.2868  136.4998  139.0416 C   0  0  0  0  0  0  0  0  0  0  0  0
  128.5873  137.8235  139.1988 C   0  0  0  0  0  0  0  0  0  0  0  0
  129.9070  138.1695  139.4327 C   0  0  0  0  0  0  0  0  0  0  0  0
  130.2524  139.4612  139.5887 F   0  0  0  0  0  0  0  0  0  0  0  0
  130.8809  137.1687  139.5002 C   0  0  0  0  0  0  0  0  0  0  0  0
  132.3819  134.1259  138.4374 C   0  0  2  0  0  0  0  0  0  0  0  0
  131.6683  132.9539  137.9227 C   0  0  0  0  0  0  0  0  0  0  0  0
  130.7516  132.1964  138.6023 C   0  0  0  0  0  0  0  0  0  0  0  0
  130.1057  131.1001  138.0283 C   0  0  0  0  0  0  0  0  0  0  0  0
  130.3686  130.7366  136.7462 C   0  0  0  0  0  0  0  0  0  0  0  0
  129.5524  129.3535  136.0219 Cl  0  0  0  0  0  0  0  0  0  0  0  0
  131.2912  131.4782  136.0232 C   0  0  0  0  0  0  0  0  0  0  0  0
  131.9171  132.5560  136.6098 C   0  0  0  0  0  0  0  0  0  0  0  0
  140.2299  134.1831  142.3638 C   0  0  0  0  0  0  0  0  0  0  0  0
  139.7112  135.3161  142.2926 O   0  0  0  0  0  0  0  0  0  0  0  0
  141.5816  134.0644  142.6015 O   0  0  0  0  0  0  0  0  0  0  0  0
  142.4935  134.7917  141.8380 C   0  0  0  0  0  0  0  0  0  0  0  0
  143.2488  135.3794  141.1927 N   0  0  0  0  0  0  0  0  0  0  0  0
  142.0937  132.6178  139.3272 H   0  0  0  0  0  0  0  0  0  0  0  0
  142.3388  131.5697  140.7546 H   0  0  0  0  0  0  0  0  0  0  0  0
  141.9455  130.7832  139.2281 H   0  0  0  0  0  0  0  0  0  0  0  0
  139.8939  132.7479  139.6740 H   0  0  0  0  0  0  0  0  0  0  0  0
  139.7762  130.9325  139.6513 H   0  0  0  0  0  0  0  0  0  0  0  0
  141.0683  131.6444  142.0971 H   0  0  0  0  0  0  0  0  0  0  0  0
  139.8670  129.6933  141.5591 H   0  0  0  0  0  0  0  0  0  0  0  0
  138.2785  130.6231  141.4795 H   0  0  0  0  0  0  0  0  0  0  0  0
  139.2323  130.3965  143.0535 H   0  0  0  0  0  0  0  0  0  0  0  0
  138.9496  132.7597  143.1826 H   0  0  0  0  0  0  0  0  0  0  0  0
  138.5164  133.8092  140.3978 H   0  0  0  0  0  0  0  0  0  0  0  0
  135.8088  133.3974  138.6111 H   0  0  0  0  0  0  0  0  0  0  0  0
  136.1260  131.8137  139.4507 H   0  0  0  0  0  0  0  0  0  0  0  0
  133.7503  132.0502  138.5735 H   0  0  0  0  0  0  0  0  0  0  0  0
  133.7663  131.9513  140.3870 H   0  0  0  0  0  0  0  0  0  0  0  0
  135.0198  135.2340  138.8386 H   0  0  0  0  0  0  0  0  0  0  0  0
  133.7960  136.0024  139.8975 H   0  0  0  0  0  0  0  0  0  0  0  0
  135.7915  135.5959  141.2538 H   0  0  0  0  0  0  0  0  0  0  0  0
  134.4070  134.4623  141.7373 H   0  0  0  0  0  0  0  0  0  0  0  0
  129.0221  134.4457  138.9848 H   0  0  0  0  0  0  0  0  0  0  0  0
  127.2525  136.2346  138.8591 H   0  0  0  0  0  0  0  0  0  0  0  0
  127.8305  138.6155  139.1481 H   0  0  0  0  0  0  0  0  0  0  0  0
  131.9290  137.4355  139.6884 H   0  0  0  0  0  0  0  0  0  0  0  0
  132.6710  134.8694  137.6517 H   0  0  0  0  0  0  0  0  0  0  0  0
  130.5172  132.4490  139.6160 H   0  0  0  0  0  0  0  0  0  0  0  0
  129.4005  130.5641  138.6382 H   0  0  0  0  0  0  0  0  0  0  0  0
  131.4680  131.1545  135.0106 H   0  0  0  0  0  0  0  0  0  0  0  0
  132.6336  133.1208  136.0312 H   0  0  0  0  0  0  0  0  0  0  0  0
  1  2  1  0
  2  3  1  0
  3  4  1  0
  3  5  1  0
  5  6  1  0
  6  7  1  0
  7  8  2  0
  7  9  1  0
  9 10  1  0
 10 11  1  0
 11 12  1  0
 12 13  1  0
 13 14  1  0
 12 15  1  0
 15 16  2  0
 15 17  1  0
 17 18  1  0
 18 19  2  0
 19 20  1  0
 20 21  2  0
 21 22  1  0
 22 23  1  0
 22 24  2  0
 17 25  1  0
 25 26  1  0
 26 27  2  0
 27 28  1  0
 28 29  2  0
 29 30  1  0
 29 31  1  0
 31 32  2  0
  5 33  1  0
 33 34  2  0
 33 35  1  0
 35 36  1  0
 36 37  3  0
 14  9  1  0
 24 18  1  0
 32 26  1  0
 25 12  1  0
  1 38  1  0
  1 39  1  0
  1 40  1  0
  2 41  1  0
  2 42  1  0
  3 43  1  1
  4 44  1  0
  4 45  1  0
  4 46  1  0
  5 47  1  1
  6 48  1  0
 10 49  1  0
 10 50  1  0
 11 51  1  0
 11 52  1  0
 13 53  1  0
 13 54  1  0
 14 55  1  0
 14 56  1  0
 19 57  1  0
 20 58  1  0
 21 59  1  0
 24 60  1  0
 25 61  1  6
 27 62  1  0
 28 63  1  0
 31 64  1  0
 32 65  1  0
M  END
>  <docking_score>  (1) 
-7.5919999999999996

$$$$

     RDKit          3D

 65 68  0  0  0  0  0  0  0  0999 V2000
  125.4702  142.2210  145.3339 C   0  0  0  0  0  0  0  0  0  0  0  0
  126.7324  142.3718  144.4748 C   0  0  0  0  0  0  0  0  0  0  0  0
  126.7533  141.2894  143.4449 C   0  0  2  0  0  0  0  0  0  0  0  0
  127.1491  139.9960  144.1907 C   0  0  0  0  0  0  0  0  0  0  0  0
  127.7098  141.4691  142.3274 C   0  0  2  0  0  0  0  0  0  0  0  0
  128.4204  140.2077  142.0708 N   0  0  0  0  0  0  0  0  0  0  0  0
  129.0234  139.9066  140.8392 C   0  0  0  0  0  0  0  0  0  0  0  0
  128.9649  140.7410  139.9187 O   0  0  0  0  0  0  0  0  0  0  0  0
  129.6864  138.6824  140.6564 N   0  0  0  0  0  0  0  0  0  0  0  0
  129.9354  137.7459  141.7397 C   0  0  0  0  0  0  0  0  0  0  0  0
  129.4307  136.4006  141.2702 C   0  0  0  0  0  0  0  0  0  0  0  0
  130.1820  135.9970  140.0322 C   0  0  0  0  0  0  0  0  0  0  0  0
  131.0568  137.1088  139.5017 C   0  0  0  0  0  0  0  0  0  0  0  0
  130.1612  138.3104  139.3257 C   0  0  0  0  0  0  0  0  0  0  0  0
  129.3918  135.4424  138.9168 C   0  0  0  0  0  0  0  0  0  0  0  0
  128.2739  135.6344  138.3518 O   0  0  0  0  0  0  0  0  0  0  0  0
  130.4383  134.5234  138.6774 N   0  0  0  0  0  0  0  0  0  0  0  0
  130.9491  133.7419  137.5804 C   0  0  0  0  0  0  0  0  0  0  0  0
  132.0042  134.2180  136.8112 C   0  0  0  0  0  0  0  0  0  0  0  0
  132.4913  133.4346  135.7613 C   0  0  0  0  0  0  0  0  0  0  0  0
  131.9697  132.2092  135.4557 C   0  0  0  0  0  0  0  0  0  0  0  0
  130.9189  131.7377  136.2234 C   0  0  0  0  0  0  0  0  0  0  0  0
  130.3688  130.5383  135.9571 F   0  0  0  0  0  0  0  0  0  0  0  0
  130.4282  132.5179  137.2745 C   0  0  0  0  0  0  0  0  0  0  0  0
  130.8421  134.6686  140.0611 C   0  0  2  0  0  0  0  0  0  0  0  0
  130.2443  133.6309  140.9058 C   0  0  0  0  0  0  0  0  0  0  0  0
  129.0685  132.9686  140.6715 C   0  0  0  0  0  0  0  0  0  0  0  0
  128.5778  131.9791  141.5251 C   0  0  0  0  0  0  0  0  0  0  0  0
  129.2638  131.6292  142.6440 C   0  0  0  0  0  0  0  0  0  0  0  0
  128.6444  130.3796  143.7205 Cl  0  0  0  0  0  0  0  0  0  0  0  0
  130.4597  132.2763  142.9175 C   0  0  0  0  0  0  0  0  0  0  0  0
  130.9250  133.2501  142.0614 C   0  0  0  0  0  0  0  0  0  0  0  0
  128.7552  142.5174  142.6141 C   0  0  0  0  0  0  0  0  0  0  0  0
  129.8935  142.1485  142.9693 O   0  0  0  0  0  0  0  0  0  0  0  0
  128.4804  143.8617  142.4908 O   0  0  0  0  0  0  0  0  0  0  0  0
  129.2202  144.7969  143.2130 C   0  0  0  0  0  0  0  0  0  0  0  0
  129.8202  145.5693  143.8259 N   0  0  0  0  0  0  0  0  0  0  0  0
  125.0559  143.1921  145.5804 H   0  0  0  0  0  0  0  0  0  0  0  0
  124.6993  141.6341  144.7795 H   0  0  0  0  0  0  0  0  0  0  0  0
  125.7064  141.5922  146.2242 H   0  0  0  0  0  0  0  0  0  0  0  0
  126.6710  143.3842  144.0095 H   0  0  0  0  0  0  0  0  0  0  0  0
  127.5919  142.3262  145.1683 H   0  0  0  0  0  0  0  0  0  0  0  0
  125.7128  141.1097  143.1022 H   0  0  0  0  0  0  0  0  0  0  0  0
  126.4237  139.2242  143.8355 H   0  0  0  0  0  0  0  0  0  0  0  0
  127.0643  140.1818  145.2732 H   0  0  0  0  0  0  0  0  0  0  0  0
  128.1394  139.6563  143.8567 H   0  0  0  0  0  0  0  0  0  0  0  0
  127.2131  141.8020  141.4117 H   0  0  0  0  0  0  0  0  0  0  0  0
  128.4634  139.5288  142.8457 H   0  0  0  0  0  0  0  0  0  0  0  0
  131.0287  137.6619  141.8804 H   0  0  0  0  0  0  0  0  0  0  0  0
  129.4459  138.0712  142.6811 H   0  0  0  0  0  0  0  0  0  0  0  0
  129.6649  135.6201  142.0380 H   0  0  0  0  0  0  0  0  0  0  0  0
  128.3328  136.4216  141.0990 H   0  0  0  0  0  0  0  0  0  0  0  0
  131.9252  137.3467  140.1072 H   0  0  0  0  0  0  0  0  0  0  0  0
  131.4172  136.8515  138.4621 H   0  0  0  0  0  0  0  0  0  0  0  0
  130.6596  139.1527  138.8048 H   0  0  0  0  0  0  0  0  0  0  0  0
  129.2327  137.9697  138.7897 H   0  0  0  0  0  0  0  0  0  0  0  0
  132.4156  135.1897  137.0564 H   0  0  0  0  0  0  0  0  0  0  0  0
  133.3137  133.7987  135.1575 H   0  0  0  0  0  0  0  0  0  0  0  0
  132.3481  131.5898  134.6337 H   0  0  0  0  0  0  0  0  0  0  0  0
  129.5970  132.1489  137.8896 H   0  0  0  0  0  0  0  0  0  0  0  0
  131.9613  134.6902  140.0825 H   0  0  0  0  0  0  0  0  0  0  0  0
  128.4968  133.2159  139.8008 H   0  0  0  0  0  0  0  0  0  0  0  0
  127.6455  131.5130  141.2605 H   0  0  0  0  0  0  0  0  0  0  0  0
  130.9701  131.9665  143.8147 H   0  0  0  0  0  0  0  0  0  0  0  0
  131.8579  133.7440  142.2918 H   0  0  0  0  0  0  0  0  0  0  0  0
  1  2  1  0
  2  3  1  0
  3  4  1  0
  3  5  1  0
  5  6  1  0
  6  7  1  0
  7  8  2  0
  7  9  1  0
  9 10  1  0
 10 11  1  0
 11 12  1  0
 12 13  1  0
 13 14  1  0
 12 15  1  0
 15 16  2  0
 15 17  1  0
 17 18  1  0
 18 19  2  0
 19 20  1  0
 20 21  2  0
 21 22  1  0
 22 23  1  0
 22 24  2  0
 17 25  1  0
 25 26  1  0
 26 27  2  0
 27 28  1  0
 28 29  2  0
 29 30  1  0
 29 31  1  0
 31 32  2  0
  5 33  1  0
 33 34  2  0
 33 35  1  0
 35 36  1  0
 36 37  3  0
 14  9  1  0
 24 18  1  0
 32 26  1  0
 25 12  1  0
  1 38  1  0
  1 39  1  0
  1 40  1  0
  2 41  1  0
  2 42  1  0
  3 43  1  6
  4 44  1  0
  4 45  1  0
  4 46  1  0
  5 47  1  6
  6 48  1  0
 10 49  1  0
 10 50  1  0
 11 51  1  0
 11 52  1  0
 13 53  1  0
 13 54  1  0
 14 55  1  0
 14 56  1  0
 19 57  1  0
 20 58  1  0
 21 59  1  0
 24 60  1  0
 25 61  1  6
 27 62  1  0
 28 63  1  0
 31 64  1  0
 32 65  1  0
M  END
>  <docking_score>  (2) 
-6.9329999999999998

$$$$

     RDKit          3D

 65 68  0  0  0  0  0  0  0  0999 V2000
  139.8326  132.6559  133.7936 C   0  0  0  0  0  0  0  0  0  0  0  0
  140.2228  131.6365  134.8718 C   0  0  0  0  0  0  0  0  0  0  0  0
  140.8749  132.3545  136.0084 C   0  0  2  0  0  0  0  0  0  0  0  0
  142.2127  131.6262  136.2641 C   0  0  0  0  0  0  0  0  0  0  0  0
  140.1257  132.3709  137.2869 C   0  0  2  0  0  0  0  0  0  0  0  0
  138.6978  132.1308  137.0318 N   0  0  0  0  0  0  0  0  0  0  0  0
  137.8896  131.3554  137.8784 C   0  0  0  0  0  0  0  0  0  0  0  0
  138.3937  130.8492  138.8966 O   0  0  0  0  0  0  0  0  0  0  0  0
  136.5316  131.1620  137.5784 N   0  0  0  0  0  0  0  0  0  0  0  0
  135.9507  129.8509  137.3414 C   0  0  0  0  0  0  0  0  0  0  0  0
  134.7377  129.7491  138.2377 C   0  0  0  0  0  0  0  0  0  0  0  0
  133.7653  130.8372  137.8765 C   0  0  0  0  0  0  0  0  0  0  0  0
  134.3461  131.8244  136.8911 C   0  0  0  0  0  0  0  0  0  0  0  0
  135.6402  132.3163  137.4912 C   0  0  0  0  0  0  0  0  0  0  0  0
  133.1489  131.5847  138.9888 C   0  0  0  0  0  0  0  0  0  0  0  0
  133.4752  132.0519  140.1207 O   0  0  0  0  0  0  0  0  0  0  0  0
  131.9359  131.5959  138.2640 N   0  0  0  0  0  0  0  0  0  0  0  0
  130.7369  132.3913  138.1919 C   0  0  0  0  0  0  0  0  0  0  0  0
  130.6212  133.4017  137.2447 C   0  0  0  0  0  0  0  0  0  0  0  0
  129.4424  134.1499  137.1855 C   0  0  0  0  0  0  0  0  0  0  0  0
  128.3887  133.9286  138.0269 C   0  0  0  0  0  0  0  0  0  0  0  0
  128.5068  132.9217  138.9693 C   0  0  0  0  0  0  0  0  0  0  0  0
  127.4973  132.6700  139.8235 F   0  0  0  0  0  0  0  0  0  0  0  0
  129.6843  132.1707  139.0324 C   0  0  0  0  0  0  0  0  0  0  0  0
  132.3802  130.4100  137.5605 C   0  0  2  0  0  0  0  0  0  0  0  0
  131.8828  129.1890  138.2004 C   0  0  0  0  0  0  0  0  0  0  0  0
  131.0105  129.1202  139.2542 C   0  0  0  0  0  0  0  0  0  0  0  0
  130.5758  127.9090  139.7950 C   0  0  0  0  0  0  0  0  0  0  0  0
  131.0117  126.7281  139.2844 C   0  0  0  0  0  0  0  0  0  0  0  0
  130.4621  125.1997  139.9668 Cl  0  0  0  0  0  0  0  0  0  0  0  0
  131.8963  126.7543  138.2164 C   0  0  0  0  0  0  0  0  0  0  0  0
  132.3124  127.9612  137.6987 C   0  0  0  0  0  0  0  0  0  0  0  0
  140.2321  133.6893  138.0112 C   0  0  0  0  0  0  0  0  0  0  0  0
  139.9922  133.7224  139.2356 O   0  0  0  0  0  0  0  0  0  0  0  0
  140.5871  134.8464  137.3532 O   0  0  0  0  0  0  0  0  0  0  0  0
  141.6692  135.6028  137.8008 C   0  0  0  0  0  0  0  0  0  0  0  0
  142.5531  136.2387  138.1834 N   0  0  0  0  0  0  0  0  0  0  0  0
  140.6855  133.2642  133.5144 H   0  0  0  0  0  0  0  0  0  0  0  0
  139.4591  132.1259  132.8849 H   0  0  0  0  0  0  0  0  0  0  0  0
  138.9548  133.2455  134.1480 H   0  0  0  0  0  0  0  0  0  0  0  0
  139.2742  131.1399  135.1861 H   0  0  0  0  0  0  0  0  0  0  0  0
  140.8898  130.9026  134.3837 H   0  0  0  0  0  0  0  0  0  0  0  0
  141.1676  133.3681  135.6627 H   0  0  0  0  0  0  0  0  0  0  0  0
  142.9995  132.3307  135.8996 H   0  0  0  0  0  0  0  0  0  0  0  0
  142.2048  130.6807  135.6991 H   0  0  0  0  0  0  0  0  0  0  0  0
  142.3820  131.5172  137.3445 H   0  0  0  0  0  0  0  0  0  0  0  0
  140.5019  131.6248  137.9925 H   0  0  0  0  0  0  0  0  0  0  0  0
  138.2947  132.5611  136.1859 H   0  0  0  0  0  0  0  0  0  0  0  0
  135.5967  129.8131  136.2948 H   0  0  0  0  0  0  0  0  0  0  0  0
  136.6826  129.0393  137.5341 H   0  0  0  0  0  0  0  0  0  0  0  0
  134.2037  128.7847  138.0428 H   0  0  0  0  0  0  0  0  0  0  0  0
  135.0267  129.7923  139.3101 H   0  0  0  0  0  0  0  0  0  0  0  0
  134.4942  131.4453  135.8853 H   0  0  0  0  0  0  0  0  0  0  0  0
  133.6829  132.7369  136.8250 H   0  0  0  0  0  0  0  0  0  0  0  0
  136.0914  133.1561  136.9253 H   0  0  0  0  0  0  0  0  0  0  0  0
  135.4386  132.5875  138.5643 H   0  0  0  0  0  0  0  0  0  0  0  0
  131.4583  133.5742  136.5790 H   0  0  0  0  0  0  0  0  0  0  0  0
  129.3445  134.9390  136.4498 H   0  0  0  0  0  0  0  0  0  0  0  0
  127.4610  134.5119  137.9848 H   0  0  0  0  0  0  0  0  0  0  0  0
  129.7838  131.3685  139.7752 H   0  0  0  0  0  0  0  0  0  0  0  0
  132.0766  130.5234  136.4887 H   0  0  0  0  0  0  0  0  0  0  0  0
  130.6442  130.0286  139.6864 H   0  0  0  0  0  0  0  0  0  0  0  0
  129.8899  127.9523  140.6221 H   0  0  0  0  0  0  0  0  0  0  0  0
  132.2151  125.7948  137.8434 H   0  0  0  0  0  0  0  0  0  0  0  0
  133.0025  127.9614  136.8676 H   0  0  0  0  0  0  0  0  0  0  0  0
  1  2  1  0
  2  3  1  0
  3  4  1  0
  3  5  1  0
  5  6  1  0
  6  7  1  0
  7  8  2  0
  7  9  1  0
  9 10  1  0
 10 11  1  0
 11 12  1  0
 12 13  1  0
 13 14  1  0
 12 15  1  0
 15 16  2  0
 15 17  1  0
 17 18  1  0
 18 19  2  0
 19 20  1  0
 20 21  2  0
 21 22  1  0
 22 23  1  0
 22 24  2  0
 17 25  1  0
 25 26  1  0
 26 27  2  0
 27 28  1  0
 28 29  2  0
 29 30  1  0
 29 31  1  0
 31 32  2  0
  5 33  1  0
 33 34  2  0
 33 35  1  0
 35 36  1  0
 36 37  3  0
 14  9  1  0
 24 18  1  0
 32 26  1  0
 25 12  1  0
  1 38  1  0
  1 39  1  0
  1 40  1  0
  2 41  1  0
  2 42  1  0
  3 43  1  6
  4 44  1  0
  4 45  1  0
  4 46  1  0
  5 47  1  1
  6 48  1  0
 10 49  1  0
 10 50  1  0
 11 51  1  0
 11 52  1  0
 13 53  1  0
 13 54  1  0
 14 55  1  0
 14 56  1  0
 19 57  1  0
 20 58  1  0
 21 59  1  0
 24 60  1  0
 25 61  1  6
 27 62  1  0
 28 63  1  0
 31 64  1  0
 32 65  1  0
M  END
>  <docking_score>  (3) 
-6.8799999999999999

$$$$
