
     RDKit          3D

 57 62  0  0  0  0  0  0  0  0999 V2000
  131.8261  128.6989  142.5235 O   0  0  0  0  0  0  0  0  0  0  0  0
  132.4760  127.7476  141.9991 C   0  0  0  0  0  0  0  0  0  0  0  0
  133.8610  127.4650  141.8356 N   0  0  0  0  0  0  0  0  0  0  0  0
  135.0732  127.8127  142.5278 C   0  0  0  0  0  0  0  0  0  0  0  0
  136.0508  128.5157  141.8708 C   0  0  0  0  0  0  0  0  0  0  0  0
  137.2190  128.8635  142.5137 C   0  0  0  0  0  0  0  0  0  0  0  0
  137.4361  128.5136  143.8343 C   0  0  0  0  0  0  0  0  0  0  0  0
  138.5591  128.8312  144.4955 F   0  0  0  0  0  0  0  0  0  0  0  0
  136.4481  127.7990  144.5068 C   0  0  0  0  0  0  0  0  0  0  0  0
  136.7149  127.3598  146.1754 Cl  0  0  0  0  0  0  0  0  0  0  0  0
  135.2942  127.4701  143.8314 C   0  0  0  0  0  0  0  0  0  0  0  0
  133.5077  126.6735  140.6789 C   0  0  1  0  0  0  0  0  0  0  0  0
  134.3573  125.5208  140.3991 C   0  0  0  0  0  0  0  0  0  0  0  0
  134.5018  125.1436  139.0602 C   0  0  0  0  0  0  0  0  0  0  0  0
  135.2935  124.0834  138.6938 C   0  0  0  0  0  0  0  0  0  0  0  0
  135.9689  123.3667  139.6592 C   0  0  0  0  0  0  0  0  0  0  0  0
  135.8154  123.7539  140.9752 C   0  0  0  0  0  0  0  0  0  0  0  0
  135.0290  124.7993  141.3056 N   0  0  0  0  0  0  0  0  0  0  0  0
  132.1812  126.4783  141.3071 C   0  0  0  0  0  0  0  0  0  0  0  0
  132.0099  125.3438  142.2473 C   0  0  0  0  0  0  0  0  0  0  0  0
  130.7311  125.5711  143.0436 C   0  0  0  0  0  0  0  0  0  0  0  0
  129.6614  126.1314  142.2889 N   0  0  0  0  0  0  0  0  0  0  0  0
  128.2890  125.8336  142.6126 C   0  0  0  0  0  0  0  0  0  0  0  0
  127.9781  124.8190  143.4452 N   0  0  0  0  0  0  0  0  0  0  0  0
  126.6464  124.7588  143.5531 C   0  0  0  0  0  0  0  0  0  0  0  0
  125.8806  123.8870  144.2818 C   0  0  0  0  0  0  0  0  0  0  0  0
  124.5253  124.0253  144.2231 C   0  0  0  0  0  0  0  0  0  0  0  0
  123.7579  123.1568  144.9394 F   0  0  0  0  0  0  0  0  0  0  0  0
  123.9403  125.0240  143.4460 C   0  0  0  0  0  0  0  0  0  0  0  0
  122.4725  125.0987  143.4419 C   0  0  0  0  0  0  0  0  0  0  0  0
  121.9229  125.0874  144.6888 F   0  0  0  0  0  0  0  0  0  0  0  0
  122.0063  126.2056  142.7585 F   0  0  0  0  0  0  0  0  0  0  0  0
  121.9864  123.9968  142.7186 F   0  0  0  0  0  0  0  0  0  0  0  0
  124.7384  125.8953  142.7167 C   0  0  0  0  0  0  0  0  0  0  0  0
  126.1088  125.7684  142.7648 C   0  0  0  0  0  0  0  0  0  0  0  0
  127.1571  126.4005  142.2090 N   0  0  0  0  0  0  0  0  0  0  0  0
  129.8292  127.0197  141.1439 C   0  0  0  0  0  0  0  0  0  0  0  0
  131.0067  126.5203  140.3475 C   0  0  0  0  0  0  0  0  0  0  0  0
  135.9433  128.8171  140.8432 H   0  0  0  0  0  0  0  0  0  0  0  0
  137.9922  129.4143  142.0067 H   0  0  0  0  0  0  0  0  0  0  0  0
  134.5406  126.9156  144.3679 H   0  0  0  0  0  0  0  0  0  0  0  0
  133.3993  127.3935  139.8186 H   0  0  0  0  0  0  0  0  0  0  0  0
  133.9944  125.6683  138.2621 H   0  0  0  0  0  0  0  0  0  0  0  0
  135.4229  123.7556  137.6579 H   0  0  0  0  0  0  0  0  0  0  0  0
  136.6076  122.5188  139.4308 H   0  0  0  0  0  0  0  0  0  0  0  0
  136.3369  123.2138  141.7721 H   0  0  0  0  0  0  0  0  0  0  0  0
  132.8822  125.3284  142.9302 H   0  0  0  0  0  0  0  0  0  0  0  0
  131.9173  124.3577  141.7462 H   0  0  0  0  0  0  0  0  0  0  0  0
  130.4245  124.5695  143.4612 H   0  0  0  0  0  0  0  0  0  0  0  0
  131.0167  126.2158  143.9247 H   0  0  0  0  0  0  0  0  0  0  0  0
  126.3251  123.1113  144.8869 H   0  0  0  0  0  0  0  0  0  0  0  0
  124.3013  126.6746  142.1113 H   0  0  0  0  0  0  0  0  0  0  0  0
  127.0933  127.2133  141.5574 H   0  0  0  0  0  0  0  0  0  0  0  0
  128.9459  126.9387  140.4617 H   0  0  0  0  0  0  0  0  0  0  0  0
  129.9147  128.0725  141.4139 H   0  0  0  0  0  0  0  0  0  0  0  0
  131.2688  127.1335  139.4908 H   0  0  0  0  0  0  0  0  0  0  0  0
  130.8189  125.4552  140.0574 H   0  0  0  0  0  0  0  0  0  0  0  0
  1  2  2  0
  2  3  1  0
  3  4  1  0
  4  5  2  0
  5  6  1  0
  6  7  2  0
  7  8  1  0
  7  9  1  0
  9 10  1  0
  9 11  2  0
  3 12  1  0
 12 13  1  0
 13 14  2  0
 14 15  1  0
 15 16  2  0
 16 17  1  0
 17 18  2  0
 12 19  1  0
 19 20  1  0
 20 21  1  0
 21 22  1  0
 22 23  1  0
 23 24  2  0
 24 25  1  0
 25 26  2  0
 26 27  1  0
 27 28  1  0
 27 29  2  0
 29 30  1  0
 30 31  1  0
 30 32  1  0
 30 33  1  0
 29 34  1  0
 34 35  2  0
 35 36  1  0
 22 37  1  0
 37 38  1  0
 19  2  1  0
 36 23  1  0
 11  4  1  0
 18 13  1  0
 38 19  1  0
 35 25  1  0
  5 39  1  0
  6 40  1  0
 11 41  1  0
 12 42  1  6
 14 43  1  0
 15 44  1  0
 16 45  1  0
 17 46  1  0
 20 47  1  0
 20 48  1  0
 21 49  1  0
 21 50  1  0
 26 51  1  0
 34 52  1  0
 36 53  1  0
 37 54  1  0
 37 55  1  0
 38 56  1  0
 38 57  1  0
M  END
>  <docking_score>  (1) 
-9.7029999999999994

$$$$

     RDKit          3D

 57 62  0  0  0  0  0  0  0  0999 V2000
  135.7650  132.7915  139.1123 O   0  0  0  0  0  0  0  0  0  0  0  0
  135.0682  132.1084  138.3058 C   0  0  0  0  0  0  0  0  0  0  0  0
  133.6714  131.8958  138.1369 N   0  0  0  0  0  0  0  0  0  0  0  0
  132.4729  132.6359  138.4289 C   0  0  0  0  0  0  0  0  0  0  0  0
  132.3381  133.9187  137.9623 C   0  0  0  0  0  0  0  0  0  0  0  0
  131.1979  134.6463  138.2258 C   0  0  0  0  0  0  0  0  0  0  0  0
  130.1625  134.1041  138.9656 C   0  0  0  0  0  0  0  0  0  0  0  0
  129.0374  134.7788  139.2453 F   0  0  0  0  0  0  0  0  0  0  0  0
  130.2933  132.8025  139.4430 C   0  0  0  0  0  0  0  0  0  0  0  0
  128.9869  132.1114  140.3726 Cl  0  0  0  0  0  0  0  0  0  0  0  0
  131.4470  132.1067  139.1590 C   0  0  0  0  0  0  0  0  0  0  0  0
  133.9928  130.6197  137.5391 C   0  0  1  0  0  0  0  0  0  0  0  0
  133.0823  130.1420  136.5038 C   0  0  0  0  0  0  0  0  0  0  0  0
  133.2764  128.8393  136.0337 C   0  0  0  0  0  0  0  0  0  0  0  0
  132.4614  128.2931  135.0733 C   0  0  0  0  0  0  0  0  0  0  0  0
  131.4221  129.0357  134.5533 C   0  0  0  0  0  0  0  0  0  0  0  0
  131.2449  130.3189  135.0299 C   0  0  0  0  0  0  0  0  0  0  0  0
  132.0630  130.8299  135.9733 N   0  0  0  0  0  0  0  0  0  0  0  0
  135.2985  131.2065  137.1611 C   0  0  0  0  0  0  0  0  0  0  0  0
  135.3939  131.9353  135.8726 C   0  0  0  0  0  0  0  0  0  0  0  0
  136.6741  132.7611  135.8835 C   0  0  0  0  0  0  0  0  0  0  0  0
  137.7827  132.1173  136.5032 N   0  0  0  0  0  0  0  0  0  0  0  0
  139.1320  132.3866  136.0746 C   0  0  0  0  0  0  0  0  0  0  0  0
  140.1713  131.6916  136.5807 N   0  0  0  0  0  0  0  0  0  0  0  0
  141.2959  132.1561  136.0255 C   0  0  0  0  0  0  0  0  0  0  0  0
  142.5895  131.7590  136.2405 C   0  0  0  0  0  0  0  0  0  0  0  0
  143.5767  132.3989  135.5508 C   0  0  0  0  0  0  0  0  0  0  0  0
  144.8658  132.0139  135.7657 F   0  0  0  0  0  0  0  0  0  0  0  0
  143.2757  133.4237  134.6549 C   0  0  0  0  0  0  0  0  0  0  0  0
  144.4026  134.0574  133.9559 C   0  0  0  0  0  0  0  0  0  0  0  0
  145.2066  134.7934  134.7737 F   0  0  0  0  0  0  0  0  0  0  0  0
  145.1791  133.1397  133.2744 F   0  0  0  0  0  0  0  0  0  0  0  0
  143.8757  134.8954  132.9588 F   0  0  0  0  0  0  0  0  0  0  0  0
  141.9565  133.8076  134.4545 C   0  0  0  0  0  0  0  0  0  0  0  0
  140.9481  133.1718  135.1438 C   0  0  0  0  0  0  0  0  0  0  0  0
  139.6092  133.2748  135.2092 N   0  0  0  0  0  0  0  0  0  0  0  0
  137.6792  131.1441  137.5851 C   0  0  0  0  0  0  0  0  0  0  0  0
  136.4847  130.2709  137.3008 C   0  0  0  0  0  0  0  0  0  0  0  0
  133.1073  134.3980  137.3818 H   0  0  0  0  0  0  0  0  0  0  0  0
  131.0830  135.6538  137.8649 H   0  0  0  0  0  0  0  0  0  0  0  0
  131.5311  131.1005  139.5379 H   0  0  0  0  0  0  0  0  0  0  0  0
  134.1521  129.8980  138.3900 H   0  0  0  0  0  0  0  0  0  0  0  0
  134.0762  128.2126  136.4043 H   0  0  0  0  0  0  0  0  0  0  0  0
  132.5889  127.2813  134.6767 H   0  0  0  0  0  0  0  0  0  0  0  0
  130.7461  128.6586  133.7917 H   0  0  0  0  0  0  0  0  0  0  0  0
  130.4295  130.9408  134.6461 H   0  0  0  0  0  0  0  0  0  0  0  0
  134.5141  132.6035  135.7895 H   0  0  0  0  0  0  0  0  0  0  0  0
  135.4361  131.2704  134.9848 H   0  0  0  0  0  0  0  0  0  0  0  0
  136.9182  132.9986  134.8085 H   0  0  0  0  0  0  0  0  0  0  0  0
  136.4152  133.7405  136.3809 H   0  0  0  0  0  0  0  0  0  0  0  0
  142.8317  130.9659  136.9316 H   0  0  0  0  0  0  0  0  0  0  0  0
  141.7066  134.5982  133.7635 H   0  0  0  0  0  0  0  0  0  0  0  0
  139.0303  133.9507  134.6639 H   0  0  0  0  0  0  0  0  0  0  0  0
  138.5645  130.4597  137.5727 H   0  0  0  0  0  0  0  0  0  0  0  0
  137.6506  131.5931  138.5782 H   0  0  0  0  0  0  0  0  0  0  0  0
  136.2680  129.5336  138.0676 H   0  0  0  0  0  0  0  0  0  0  0  0
  136.6151  129.8002  136.2932 H   0  0  0  0  0  0  0  0  0  0  0  0
  1  2  2  0
  2  3  1  0
  3  4  1  0
  4  5  2  0
  5  6  1  0
  6  7  2  0
  7  8  1  0
  7  9  1  0
  9 10  1  0
  9 11  2  0
  3 12  1  0
 12 13  1  0
 13 14  2  0
 14 15  1  0
 15 16  2  0
 16 17  1  0
 17 18  2  0
 12 19  1  0
 19 20  1  0
 20 21  1  0
 21 22  1  0
 22 23  1  0
 23 24  2  0
 24 25  1  0
 25 26  2  0
 26 27  1  0
 27 28  1  0
 27 29  2  0
 29 30  1  0
 30 31  1  0
 30 32  1  0
 30 33  1  0
 29 34  1  0
 34 35  2  0
 35 36  1  0
 22 37  1  0
 37 38  1  0
 19  2  1  0
 36 23  1  0
 11  4  1  0
 18 13  1  0
 38 19  1  0
 35 25  1  0
  5 39  1  0
  6 40  1  0
 11 41  1  0
 12 42  1  1
 14 43  1  0
 15 44  1  0
 16 45  1  0
 17 46  1  0
 20 47  1  0
 20 48  1  0
 21 49  1  0
 21 50  1  0
 26 51  1  0
 34 52  1  0
 36 53  1  0
 37 54  1  0
 37 55  1  0
 38 56  1  0
 38 57  1  0
M  END
>  <docking_score>  (2) 
-9.6430000000000007

$$$$

     RDKit          3D

 57 62  0  0  0  0  0  0  0  0999 V2000
  133.1705  128.9994  137.7980 O   0  0  0  0  0  0  0  0  0  0  0  0
  132.3619  129.9661  137.9166 C   0  0  0  0  0  0  0  0  0  0  0  0
  131.1209  130.1433  138.5898 N   0  0  0  0  0  0  0  0  0  0  0  0
  130.4786  129.5625  139.7384 C   0  0  0  0  0  0  0  0  0  0  0  0
  129.4474  128.6752  139.5617 C   0  0  0  0  0  0  0  0  0  0  0  0
  128.8190  128.1029  140.6464 C   0  0  0  0  0  0  0  0  0  0  0  0
  129.2099  128.4073  141.9379 C   0  0  0  0  0  0  0  0  0  0  0  0
  128.6238  127.8736  143.0199 F   0  0  0  0  0  0  0  0  0  0  0  0
  130.2554  129.3079  142.1243 C   0  0  0  0  0  0  0  0  0  0  0  0
  130.7564  129.6912  143.7524 Cl  0  0  0  0  0  0  0  0  0  0  0  0
  130.8592  129.8588  141.0162 C   0  0  0  0  0  0  0  0  0  0  0  0
  130.8009  131.1638  137.6174 C   0  0  1  0  0  0  0  0  0  0  0  0
  129.9640  132.2638  138.0848 C   0  0  0  0  0  0  0  0  0  0  0  0
  129.1093  132.8579  137.1508 C   0  0  0  0  0  0  0  0  0  0  0  0
  128.2706  133.8880  137.4977 C   0  0  0  0  0  0  0  0  0  0  0  0
  128.2599  134.3559  138.7951 C   0  0  0  0  0  0  0  0  0  0  0  0
  129.1092  133.7569  139.7034 C   0  0  0  0  0  0  0  0  0  0  0  0
  129.9239  132.7471  139.3332 N   0  0  0  0  0  0  0  0  0  0  0  0
  132.2588  131.3630  137.4530 C   0  0  0  0  0  0  0  0  0  0  0  0
  132.9438  132.3158  138.3604 C   0  0  0  0  0  0  0  0  0  0  0  0
  134.4441  132.0663  138.2722 C   0  0  0  0  0  0  0  0  0  0  0  0
  134.9118  131.7570  136.9633 N   0  0  0  0  0  0  0  0  0  0  0  0
  136.2437  132.1168  136.5467 C   0  0  0  0  0  0  0  0  0  0  0  0
  136.4623  132.6927  135.3467 N   0  0  0  0  0  0  0  0  0  0  0  0
  137.7769  132.9005  135.2151 C   0  0  0  0  0  0  0  0  0  0  0  0
  138.4598  133.4527  134.1634 C   0  0  0  0  0  0  0  0  0  0  0  0
  139.8161  133.5516  134.2645 C   0  0  0  0  0  0  0  0  0  0  0  0
  140.5018  134.0928  133.2190 F   0  0  0  0  0  0  0  0  0  0  0  0
  140.4838  133.1052  135.4039 C   0  0  0  0  0  0  0  0  0  0  0  0
  141.9461  133.2509  135.4261 C   0  0  0  0  0  0  0  0  0  0  0  0
  142.3976  134.3229  134.7162 F   0  0  0  0  0  0  0  0  0  0  0  0
  142.4458  133.3245  136.7123 F   0  0  0  0  0  0  0  0  0  0  0  0
  142.5047  132.0792  134.8884 F   0  0  0  0  0  0  0  0  0  0  0  0
  139.7688  132.5494  136.4565 C   0  0  0  0  0  0  0  0  0  0  0  0
  138.3987  132.4417  136.3696 C   0  0  0  0  0  0  0  0  0  0  0  0
  137.4153  131.9709  137.1562 N   0  0  0  0  0  0  0  0  0  0  0  0
  134.1232  131.0830  135.9375 C   0  0  0  0  0  0  0  0  0  0  0  0
  132.7139  131.6083  136.0266 C   0  0  0  0  0  0  0  0  0  0  0  0
  129.0957  128.3975  138.5832 H   0  0  0  0  0  0  0  0  0  0  0  0
  128.0085  127.4064  140.5182 H   0  0  0  0  0  0  0  0  0  0  0  0
  131.6664  130.5551  141.1800 H   0  0  0  0  0  0  0  0  0  0  0  0
  130.4032  130.6279  136.7092 H   0  0  0  0  0  0  0  0  0  0  0  0
  129.0771  132.5329  136.1198 H   0  0  0  0  0  0  0  0  0  0  0  0
  127.5954  134.3813  136.7920 H   0  0  0  0  0  0  0  0  0  0  0  0
  127.6204  135.1678  139.1280 H   0  0  0  0  0  0  0  0  0  0  0  0
  129.1293  134.0959  140.7444 H   0  0  0  0  0  0  0  0  0  0  0  0
  132.5890  132.1237  139.3922 H   0  0  0  0  0  0  0  0  0  0  0  0
  132.7696  133.3816  138.1038 H   0  0  0  0  0  0  0  0  0  0  0  0
  134.9527  132.9980  138.6527 H   0  0  0  0  0  0  0  0  0  0  0  0
  134.6731  131.2465  139.0132 H   0  0  0  0  0  0  0  0  0  0  0  0
  137.9510  133.8018  133.2777 H   0  0  0  0  0  0  0  0  0  0  0  0
  140.2704  132.2002  137.3460 H   0  0  0  0  0  0  0  0  0  0  0  0
  137.5501  131.5523  138.1027 H   0  0  0  0  0  0  0  0  0  0  0  0
  134.4898  131.3703  134.9200 H   0  0  0  0  0  0  0  0  0  0  0  0
  134.1752  129.9951  135.9879 H   0  0  0  0  0  0  0  0  0  0  0  0
  132.0110  131.1416  135.3435 H   0  0  0  0  0  0  0  0  0  0  0  0
  132.7368  132.7214  135.9069 H   0  0  0  0  0  0  0  0  0  0  0  0
  1  2  2  0
  2  3  1  0
  3  4  1  0
  4  5  2  0
  5  6  1  0
  6  7  2  0
  7  8  1  0
  7  9  1  0
  9 10  1  0
  9 11  2  0
  3 12  1  0
 12 13  1  0
 13 14  2  0
 14 15  1  0
 15 16  2  0
 16 17  1  0
 17 18  2  0
 12 19  1  0
 19 20  1  0
 20 21  1  0
 21 22  1  0
 22 23  1  0
 23 24  2  0
 24 25  1  0
 25 26  2  0
 26 27  1  0
 27 28  1  0
 27 29  2  0
 29 30  1  0
 30 31  1  0
 30 32  1  0
 30 33  1  0
 29 34  1  0
 34 35  2  0
 35 36  1  0
 22 37  1  0
 37 38  1  0
 19  2  1  0
 36 23  1  0
 11  4  1  0
 18 13  1  0
 38 19  1  0
 35 25  1  0
  5 39  1  0
  6 40  1  0
 11 41  1  0
 12 42  1  6
 14 43  1  0
 15 44  1  0
 16 45  1  0
 17 46  1  0
 20 47  1  0
 20 48  1  0
 21 49  1  0
 21 50  1  0
 26 51  1  0
 34 52  1  0
 36 53  1  0
 37 54  1  0
 37 55  1  0
 38 56  1  0
 38 57  1  0
M  END
>  <docking_score>  (3) 
-9.0890000000000004

$$$$
