
     RDKit          3D

 65 68  0  0  0  0  0  0  0  0999 V2000
  148.9378  136.0986  142.6658 C   0  0  0  0  0  0  0  0  0  0  0  0
  148.1658  137.3905  142.8098 C   0  0  0  0  0  0  0  0  0  0  0  0
  149.1049  138.5235  142.4207 C   0  0  2  0  0  0  0  0  0  0  0  0
  149.5177  139.2433  143.6705 C   0  0  0  0  0  0  0  0  0  0  0  0
  148.4429  139.4778  141.4521 C   0  0  2  0  0  0  0  0  0  0  0  0
  147.9012  138.7245  140.3331 N   0  0  0  0  0  0  0  0  0  0  0  0
  146.6723  139.1021  139.7454 C   0  0  0  0  0  0  0  0  0  0  0  0
  146.0920  140.0997  140.2343 O   0  0  0  0  0  0  0  0  0  0  0  0
  146.0994  138.4180  138.6671 N   0  0  0  0  0  0  0  0  0  0  0  0
  146.5366  137.0469  138.4079 C   0  0  0  0  0  0  0  0  0  0  0  0
  145.2999  136.1610  138.6275 C   0  0  0  0  0  0  0  0  0  0  0  0
  144.3204  136.5203  137.5748 C   0  0  0  0  0  0  0  0  0  0  0  0
  144.0091  137.9577  137.4465 C   0  0  0  0  0  0  0  0  0  0  0  0
  145.1022  138.9211  137.7579 C   0  0  0  0  0  0  0  0  0  0  0  0
  144.7228  135.8184  136.2640 C   0  0  0  0  0  0  0  0  0  0  0  0
  143.9486  134.6774  136.7882 N   0  0  0  0  0  0  0  0  0  0  0  0
  143.3466  133.8678  135.7622 C   0  0  0  0  0  0  0  0  0  0  0  0
  144.2287  132.8733  135.0896 C   0  0  0  0  0  0  0  0  0  0  0  0
  143.0240  132.4559  135.9285 C   0  0  0  0  0  0  0  0  0  0  0  0
  143.0997  135.6751  137.3923 C   0  0  1  0  0  0  0  0  0  0  0  0
  142.2813  135.3226  138.5294 C   0  0  0  0  0  0  0  0  0  0  0  0
  141.2374  134.4013  138.3653 C   0  0  0  0  0  0  0  0  0  0  0  0
  140.4231  134.0209  139.4072 C   0  0  0  0  0  0  0  0  0  0  0  0
  140.6707  134.5854  140.6428 C   0  0  0  0  0  0  0  0  0  0  0  0
  139.6466  134.1211  142.0017 Cl  0  0  0  0  0  0  0  0  0  0  0  0
  141.6806  135.4915  140.8526 C   0  0  0  0  0  0  0  0  0  0  0  0
  142.4727  135.8443  139.7800 C   0  0  0  0  0  0  0  0  0  0  0  0
  149.4934  140.4141  140.9746 C   0  0  0  0  0  0  0  0  0  0  0  0
  149.4606  141.6097  141.3501 O   0  0  0  0  0  0  0  0  0  0  0  0
  150.5087  140.0339  140.1354 O   0  0  0  0  0  0  0  0  0  0  0  0
  151.7057  140.7568  139.9354 C   0  0  0  0  0  0  0  0  0  0  0  0
  149.2202  135.9362  141.6008 H   0  0  0  0  0  0  0  0  0  0  0  0
  149.8768  136.0983  143.2739 H   0  0  0  0  0  0  0  0  0  0  0  0
  148.3450  135.2277  143.0338 H   0  0  0  0  0  0  0  0  0  0  0  0
  147.8184  137.5018  143.8505 H   0  0  0  0  0  0  0  0  0  0  0  0
  147.3347  137.4179  142.0760 H   0  0  0  0  0  0  0  0  0  0  0  0
  149.9947  138.0557  141.9323 H   0  0  0  0  0  0  0  0  0  0  0  0
  149.3629  140.3404  143.5014 H   0  0  0  0  0  0  0  0  0  0  0  0
  150.5946  139.0748  143.9350 H   0  0  0  0  0  0  0  0  0  0  0  0
  148.9409  138.9407  144.5581 H   0  0  0  0  0  0  0  0  0  0  0  0
  147.6227  140.0102  141.9648 H   0  0  0  0  0  0  0  0  0  0  0  0
  148.4271  137.9069  139.9724 H   0  0  0  0  0  0  0  0  0  0  0  0
  147.3121  136.7131  139.1117 H   0  0  0  0  0  0  0  0  0  0  0  0
  146.8534  136.9779  137.3429 H   0  0  0  0  0  0  0  0  0  0  0  0
  145.7019  135.1243  138.4231 H   0  0  0  0  0  0  0  0  0  0  0  0
  144.9744  136.3013  139.6598 H   0  0  0  0  0  0  0  0  0  0  0  0
  143.1482  138.1897  138.1341 H   0  0  0  0  0  0  0  0  0  0  0  0
  143.6205  138.1590  136.4257 H   0  0  0  0  0  0  0  0  0  0  0  0
  144.6641  139.8593  138.1435 H   0  0  0  0  0  0  0  0  0  0  0  0
  145.5862  139.2068  136.7826 H   0  0  0  0  0  0  0  0  0  0  0  0
  144.2929  136.2803  135.3658 H   0  0  0  0  0  0  0  0  0  0  0  0
  145.8059  135.5698  136.2221 H   0  0  0  0  0  0  0  0  0  0  0  0
  142.6976  134.4574  135.0589 H   0  0  0  0  0  0  0  0  0  0  0  0
  144.1435  132.6995  133.9805 H   0  0  0  0  0  0  0  0  0  0  0  0
  145.2334  132.6657  135.4722 H   0  0  0  0  0  0  0  0  0  0  0  0
  142.1296  132.0490  135.3726 H   0  0  0  0  0  0  0  0  0  0  0  0
  143.2865  131.8485  136.7930 H   0  0  0  0  0  0  0  0  0  0  0  0
  142.4944  136.1421  136.5550 H   0  0  0  0  0  0  0  0  0  0  0  0
  141.0447  133.9550  137.3797 H   0  0  0  0  0  0  0  0  0  0  0  0
  139.6136  133.3096  139.2907 H   0  0  0  0  0  0  0  0  0  0  0  0
  141.8841  135.9409  141.8183 H   0  0  0  0  0  0  0  0  0  0  0  0
  143.2954  136.5614  139.8878 H   0  0  0  0  0  0  0  0  0  0  0  0
  151.6609  141.7737  140.4112 H   0  0  0  0  0  0  0  0  0  0  0  0
  152.5182  140.1360  140.4015 H   0  0  0  0  0  0  0  0  0  0  0  0
  151.8781  140.8801  138.8360 H   0  0  0  0  0  0  0  0  0  0  0  0
  1  2  1  0
  2  3  1  0
  3  4  1  0
  3  5  1  0
  5  6  1  0
  6  7  1  0
  7  8  2  0
  7  9  1  0
  9 10  1  0
 10 11  1  0
 11 12  1  0
 12 13  1  0
 13 14  1  0
 12 15  1  0
 15 16  1  0
 16 17  1  0
 17 18  1  0
 18 19  1  0
 16 20  1  0
 20 21  1  0
 21 22  2  0
 22 23  1  0
 23 24  2  0
 24 25  1  0
 24 26  1  0
 26 27  2  0
  5 28  1  0
 28 29  2  0
 28 30  1  0
 30 31  1  0
 14  9  1  0
 19 17  1  0
 27 21  1  0
 20 12  1  0
  1 32  1  0
  1 33  1  0
  1 34  1  0
  2 35  1  0
  2 36  1  0
  3 37  1  6
  4 38  1  0
  4 39  1  0
  4 40  1  0
  5 41  1  1
  6 42  1  0
 10 43  1  0
 10 44  1  0
 11 45  1  0
 11 46  1  0
 13 47  1  0
 13 48  1  0
 14 49  1  0
 14 50  1  0
 15 51  1  0
 15 52  1  0
 17 53  1  0
 18 54  1  0
 18 55  1  0
 19 56  1  0
 19 57  1  0
 20 58  1  6
 22 59  1  0
 23 60  1  0
 26 61  1  0
 27 62  1  0
 31 63  1  0
 31 64  1  0
 31 65  1  0
M  END
>  <docking_score>  (1) 
-6.7720000000000002

$$$$

     RDKit          3D

 65 68  0  0  0  0  0  0  0  0999 V2000
  131.3330  131.3012  135.2748 C   0  0  0  0  0  0  0  0  0  0  0  0
  132.2347  132.4664  135.6139 C   0  0  0  0  0  0  0  0  0  0  0  0
  133.5394  131.8884  136.1438 C   0  0  2  0  0  0  0  0  0  0  0  0
  133.2145  130.9309  137.2521 C   0  0  0  0  0  0  0  0  0  0  0  0
  134.4630  132.9792  136.6379 C   0  0  2  0  0  0  0  0  0  0  0  0
  135.8140  132.4523  136.7399 N   0  0  0  0  0  0  0  0  0  0  0  0
  136.7866  132.7865  135.7701 C   0  0  0  0  0  0  0  0  0  0  0  0
  136.4240  133.5446  134.8402 O   0  0  0  0  0  0  0  0  0  0  0  0
  138.1026  132.3119  135.8133 N   0  0  0  0  0  0  0  0  0  0  0  0
  139.0582  132.8352  134.8379 C   0  0  0  0  0  0  0  0  0  0  0  0
  140.1221  133.5888  135.6520 C   0  0  0  0  0  0  0  0  0  0  0  0
  140.8331  132.5786  136.4710 C   0  0  0  0  0  0  0  0  0  0  0  0
  139.9793  131.6898  137.2837 C   0  0  0  0  0  0  0  0  0  0  0  0
  138.6399  131.3413  136.7316 C   0  0  0  0  0  0  0  0  0  0  0  0
  141.8670  131.8604  135.5832 C   0  0  0  0  0  0  0  0  0  0  0  0
  142.7594  132.9794  135.9403 N   0  0  0  0  0  0  0  0  0  0  0  0
  144.1525  132.6199  135.9713 C   0  0  0  0  0  0  0  0  0  0  0  0
  144.8486  132.5225  134.6578 C   0  0  0  0  0  0  0  0  0  0  0  0
  145.2377  133.5575  135.7097 C   0  0  0  0  0  0  0  0  0  0  0  0
  142.0723  132.9757  137.2088 C   0  0  1  0  0  0  0  0  0  0  0  0
  142.0819  134.1646  138.0294 C   0  0  0  0  0  0  0  0  0  0  0  0
  141.6408  134.0860  139.3578 C   0  0  0  0  0  0  0  0  0  0  0  0
  141.6268  135.1796  140.1927 C   0  0  0  0  0  0  0  0  0  0  0  0
  142.0690  136.3794  139.6719 C   0  0  0  0  0  0  0  0  0  0  0  0
  142.0650  137.8027  140.7136 Cl  0  0  0  0  0  0  0  0  0  0  0  0
  142.5101  136.5059  138.3779 C   0  0  0  0  0  0  0  0  0  0  0  0
  142.5071  135.3837  137.5759 C   0  0  0  0  0  0  0  0  0  0  0  0
  133.9743  133.3909  137.9794 C   0  0  0  0  0  0  0  0  0  0  0  0
  134.6135  133.0338  138.9969 O   0  0  0  0  0  0  0  0  0  0  0  0
  132.8478  134.1501  138.1645 O   0  0  0  0  0  0  0  0  0  0  0  0
  131.8305  133.8714  139.1040 C   0  0  0  0  0  0  0  0  0  0  0  0
  131.2061  130.6420  136.1635 H   0  0  0  0  0  0  0  0  0  0  0  0
  130.3168  131.6355  134.9474 H   0  0  0  0  0  0  0  0  0  0  0  0
  131.7397  130.7073  134.4220 H   0  0  0  0  0  0  0  0  0  0  0  0
  131.7475  133.1058  136.3689 H   0  0  0  0  0  0  0  0  0  0  0  0
  132.4996  133.0206  134.6905 H   0  0  0  0  0  0  0  0  0  0  0  0
  134.0241  131.3468  135.2949 H   0  0  0  0  0  0  0  0  0  0  0  0
  133.3431  129.8906  136.8552 H   0  0  0  0  0  0  0  0  0  0  0  0
  132.1629  131.0388  137.6270 H   0  0  0  0  0  0  0  0  0  0  0  0
  133.8607  131.0514  138.1352 H   0  0  0  0  0  0  0  0  0  0  0  0
  134.4525  133.8203  135.9227 H   0  0  0  0  0  0  0  0  0  0  0  0
  136.0545  131.8283  137.5324 H   0  0  0  0  0  0  0  0  0  0  0  0
  138.5998  133.5553  134.1454 H   0  0  0  0  0  0  0  0  0  0  0  0
  139.5348  131.9726  134.3200 H   0  0  0  0  0  0  0  0  0  0  0  0
  140.8185  133.9730  134.8485 H   0  0  0  0  0  0  0  0  0  0  0  0
  139.6142  134.3850  136.1990 H   0  0  0  0  0  0  0  0  0  0  0  0
  139.8152  132.1832  138.2824 H   0  0  0  0  0  0  0  0  0  0  0  0
  140.5363  130.7571  137.5149 H   0  0  0  0  0  0  0  0  0  0  0  0
  137.9358  131.1643  137.5645 H   0  0  0  0  0  0  0  0  0  0  0  0
  138.7374  130.3445  136.2178 H   0  0  0  0  0  0  0  0  0  0  0  0
  142.1858  130.8864  135.9763 H   0  0  0  0  0  0  0  0  0  0  0  0
  141.6077  131.8967  134.5024 H   0  0  0  0  0  0  0  0  0  0  0  0
  144.3735  131.7706  136.6737 H   0  0  0  0  0  0  0  0  0  0  0  0
  145.5955  131.7006  134.4723 H   0  0  0  0  0  0  0  0  0  0  0  0
  144.3619  132.8642  133.7384 H   0  0  0  0  0  0  0  0  0  0  0  0
  146.2166  133.3965  136.2485 H   0  0  0  0  0  0  0  0  0  0  0  0
  145.1133  134.5855  135.3739 H   0  0  0  0  0  0  0  0  0  0  0  0
  142.4305  132.0602  137.7736 H   0  0  0  0  0  0  0  0  0  0  0  0
  141.2898  133.1285  139.7674 H   0  0  0  0  0  0  0  0  0  0  0  0
  141.2878  135.1293  141.2211 H   0  0  0  0  0  0  0  0  0  0  0  0
  142.8595  137.4428  137.9585 H   0  0  0  0  0  0  0  0  0  0  0  0
  142.8499  135.4236  136.5350 H   0  0  0  0  0  0  0  0  0  0  0  0
  132.0957  134.2508  140.1279 H   0  0  0  0  0  0  0  0  0  0  0  0
  130.9090  134.3850  138.7169 H   0  0  0  0  0  0  0  0  0  0  0  0
  131.6774  132.7636  139.1581 H   0  0  0  0  0  0  0  0  0  0  0  0
  1  2  1  0
  2  3  1  0
  3  4  1  0
  3  5  1  0
  5  6  1  0
  6  7  1  0
  7  8  2  0
  7  9  1  0
  9 10  1  0
 10 11  1  0
 11 12  1  0
 12 13  1  0
 13 14  1  0
 12 15  1  0
 15 16  1  0
 16 17  1  0
 17 18  1  0
 18 19  1  0
 16 20  1  0
 20 21  1  0
 21 22  2  0
 22 23  1  0
 23 24  2  0
 24 25  1  0
 24 26  1  0
 26 27  2  0
  5 28  1  0
 28 29  2  0
 28 30  1  0
 30 31  1  0
 14  9  1  0
 19 17  1  0
 27 21  1  0
 20 12  1  0
  1 32  1  0
  1 33  1  0
  1 34  1  0
  2 35  1  0
  2 36  1  0
  3 37  1  6
  4 38  1  0
  4 39  1  0
  4 40  1  0
  5 41  1  6
  6 42  1  0
 10 43  1  0
 10 44  1  0
 11 45  1  0
 11 46  1  0
 13 47  1  0
 13 48  1  0
 14 49  1  0
 14 50  1  0
 15 51  1  0
 15 52  1  0
 17 53  1  0
 18 54  1  0
 18 55  1  0
 19 56  1  0
 19 57  1  0
 20 58  1  1
 22 59  1  0
 23 60  1  0
 26 61  1  0
 27 62  1  0
 31 63  1  0
 31 64  1  0
 31 65  1  0
M  END
>  <docking_score>  (2) 
-6.7560000000000002

$$$$

     RDKit          3D

 65 68  0  0  0  0  0  0  0  0999 V2000
  132.4592  132.5690  135.7945 C   0  0  0  0  0  0  0  0  0  0  0  0
  131.2661  133.2069  136.4695 C   0  0  0  0  0  0  0  0  0  0  0  0
  130.6635  132.1646  137.4008 C   0  0  2  0  0  0  0  0  0  0  0  0
  129.7456  131.2905  136.5983 C   0  0  0  0  0  0  0  0  0  0  0  0
  129.9144  132.8152  138.5422 C   0  0  2  0  0  0  0  0  0  0  0  0
  130.4729  134.1340  138.7910 N   0  0  0  0  0  0  0  0  0  0  0  0
  129.6670  135.1606  139.3338 C   0  0  0  0  0  0  0  0  0  0  0  0
  128.4724  134.8737  139.5813 O   0  0  0  0  0  0  0  0  0  0  0  0
  130.1460  136.4493  139.5960 N   0  0  0  0  0  0  0  0  0  0  0  0
  129.4462  137.5827  138.9924 C   0  0  0  0  0  0  0  0  0  0  0  0
  128.8700  138.3949  140.1632 C   0  0  0  0  0  0  0  0  0  0  0  0
  130.0233  138.9380  140.9193 C   0  0  0  0  0  0  0  0  0  0  0  0
  131.0502  137.9570  141.3224 C   0  0  0  0  0  0  0  0  0  0  0  0
  131.2792  136.7989  140.4132 C   0  0  0  0  0  0  0  0  0  0  0  0
  130.5584  140.1797  140.1813 C   0  0  0  0  0  0  0  0  0  0  0  0
  129.5341  140.9161  140.9458 N   0  0  0  0  0  0  0  0  0  0  0  0
  129.8980  142.2776  141.2364 C   0  0  0  0  0  0  0  0  0  0  0  0
  129.7755  143.2567  140.1203 C   0  0  0  0  0  0  0  0  0  0  0  0
  128.9333  143.3598  141.3889 C   0  0  0  0  0  0  0  0  0  0  0  0
  129.7825  139.9534  141.9911 C   0  0  1  0  0  0  0  0  0  0  0  0
  128.7766  139.7212  143.0016 C   0  0  0  0  0  0  0  0  0  0  0  0
  127.6319  140.5302  143.0301 C   0  0  0  0  0  0  0  0  0  0  0  0
  126.6357  140.3602  143.9640 C   0  0  0  0  0  0  0  0  0  0  0  0
  126.8016  139.3492  144.8896 C   0  0  0  0  0  0  0  0  0  0  0  0
  125.5445  139.1022  146.1020 Cl  0  0  0  0  0  0  0  0  0  0  0  0
  127.9045  138.5316  144.9018 C   0  0  0  0  0  0  0  0  0  0  0  0
  128.8786  138.7374  143.9473 C   0  0  0  0  0  0  0  0  0  0  0  0
  130.1001  131.9500  139.7359 C   0  0  0  0  0  0  0  0  0  0  0  0
  131.2072  131.3904  139.9167 O   0  0  0  0  0  0  0  0  0  0  0  0
  129.1124  131.7296  140.6608 O   0  0  0  0  0  0  0  0  0  0  0  0
  129.1843  132.0956  142.0232 C   0  0  0  0  0  0  0  0  0  0  0  0
  133.2962  132.4556  136.5204 H   0  0  0  0  0  0  0  0  0  0  0  0
  132.2203  131.5557  135.3850 H   0  0  0  0  0  0  0  0  0  0  0  0
  132.8006  133.1707  134.9189 H   0  0  0  0  0  0  0  0  0  0  0  0
  130.5364  133.5287  135.7077 H   0  0  0  0  0  0  0  0  0  0  0  0
  131.6009  134.0401  137.1203 H   0  0  0  0  0  0  0  0  0  0  0  0
  131.5122  131.5625  137.8083 H   0  0  0  0  0  0  0  0  0  0  0  0
  128.7170  131.3822  137.0340 H   0  0  0  0  0  0  0  0  0  0  0  0
  130.0437  130.2095  136.6201 H   0  0  0  0  0  0  0  0  0  0  0  0
  129.7011  131.5670  135.5336 H   0  0  0  0  0  0  0  0  0  0  0  0
  128.8487  132.9155  138.2713 H   0  0  0  0  0  0  0  0  0  0  0  0
  131.4691  134.3117  138.5647 H   0  0  0  0  0  0  0  0  0  0  0  0
  128.6031  137.2679  138.3613 H   0  0  0  0  0  0  0  0  0  0  0  0
  130.1930  138.2029  138.4474 H   0  0  0  0  0  0  0  0  0  0  0  0
  128.3391  139.2421  139.6356 H   0  0  0  0  0  0  0  0  0  0  0  0
  128.1938  137.7402  140.7159 H   0  0  0  0  0  0  0  0  0  0  0  0
  130.7605  137.5441  142.3291 H   0  0  0  0  0  0  0  0  0  0  0  0
  132.0122  138.4840  141.4969 H   0  0  0  0  0  0  0  0  0  0  0  0
  131.6125  135.9285  141.0064 H   0  0  0  0  0  0  0  0  0  0  0  0
  132.1569  137.0555  139.7568 H   0  0  0  0  0  0  0  0  0  0  0  0
  131.5916  140.4393  140.4458 H   0  0  0  0  0  0  0  0  0  0  0  0
  130.3110  140.1777  139.0972 H   0  0  0  0  0  0  0  0  0  0  0  0
  130.8540  142.3635  141.8213 H   0  0  0  0  0  0  0  0  0  0  0  0
  130.5568  144.0549  139.9788 H   0  0  0  0  0  0  0  0  0  0  0  0
  129.2825  142.9795  139.1827 H   0  0  0  0  0  0  0  0  0  0  0  0
  129.1856  144.1960  142.1040 H   0  0  0  0  0  0  0  0  0  0  0  0
  127.8630  143.2784  141.2071 H   0  0  0  0  0  0  0  0  0  0  0  0
  130.7920  140.2088  142.4396 H   0  0  0  0  0  0  0  0  0  0  0  0
  127.5049  141.3334  142.2910 H   0  0  0  0  0  0  0  0  0  0  0  0
  125.7471  140.9801  143.9945 H   0  0  0  0  0  0  0  0  0  0  0  0
  128.0452  137.7348  145.6237 H   0  0  0  0  0  0  0  0  0  0  0  0
  129.7803  138.1145  143.9066 H   0  0  0  0  0  0  0  0  0  0  0  0
  129.7961  133.0264  142.1712 H   0  0  0  0  0  0  0  0  0  0  0  0
  128.1223  132.2626  142.3505 H   0  0  0  0  0  0  0  0  0  0  0  0
  129.6537  131.2596  142.6013 H   0  0  0  0  0  0  0  0  0  0  0  0
  1  2  1  0
  2  3  1  0
  3  4  1  0
  3  5  1  0
  5  6  1  0
  6  7  1  0
  7  8  2  0
  7  9  1  0
  9 10  1  0
 10 11  1  0
 11 12  1  0
 12 13  1  0
 13 14  1  0
 12 15  1  0
 15 16  1  0
 16 17  1  0
 17 18  1  0
 18 19  1  0
 16 20  1  0
 20 21  1  0
 21 22  2  0
 22 23  1  0
 23 24  2  0
 24 25  1  0
 24 26  1  0
 26 27  2  0
  5 28  1  0
 28 29  2  0
 28 30  1  0
 30 31  1  0
 14  9  1  0
 19 17  1  0
 27 21  1  0
 20 12  1  0
  1 32  1  0
  1 33  1  0
  1 34  1  0
  2 35  1  0
  2 36  1  0
  3 37  1  1
  4 38  1  0
  4 39  1  0
  4 40  1  0
  5 41  1  6
  6 42  1  0
 10 43  1  0
 10 44  1  0
 11 45  1  0
 11 46  1  0
 13 47  1  0
 13 48  1  0
 14 49  1  0
 14 50  1  0
 15 51  1  0
 15 52  1  0
 17 53  1  0
 18 54  1  0
 18 55  1  0
 19 56  1  0
 19 57  1  0
 20 58  1  1
 22 59  1  0
 23 60  1  0
 26 61  1  0
 27 62  1  0
 31 63  1  0
 31 64  1  0
 31 65  1  0
M  END
>  <docking_score>  (3) 
-6.5179999999999998

$$$$
