
     RDKit          3D

 49 52  0  0  0  0  0  0  0  0999 V2000
  131.6225  128.6897  143.1740 C   0  0  0  0  0  0  0  0  0  0  0  0
  131.4673  127.4252  142.4826 N   0  0  0  0  0  0  0  0  0  0  0  0
  132.1435  126.1838  142.5269 C   0  0  0  0  0  0  0  0  0  0  0  0
  132.8356  125.6414  143.4294 O   0  0  0  0  0  0  0  0  0  0  0  0
  131.6715  125.9153  141.1586 C   0  0  0  0  0  0  0  0  0  0  0  0
  132.6783  126.4201  140.1509 C   0  0  0  0  0  0  0  0  0  0  0  0
  133.9564  125.6422  140.4255 C   0  0  0  0  0  0  0  0  0  0  0  0
  133.6482  124.2542  140.1040 N   0  0  0  0  0  0  0  0  0  0  0  0
  134.7113  123.4202  139.6599 C   0  0  0  0  0  0  0  0  0  0  0  0
  135.5446  123.8721  138.8559 O   0  0  0  0  0  0  0  0  0  0  0  0
  134.8279  122.0942  140.1203 N   0  0  0  0  0  0  0  0  0  0  0  0
  135.8137  121.1420  139.7893 C   0  0  0  0  0  0  0  0  0  0  0  0
  135.8486  120.5363  138.5662 C   0  0  0  0  0  0  0  0  0  0  0  0
  136.8178  119.5752  138.2357 C   0  0  0  0  0  0  0  0  0  0  0  0
  136.7950  119.0153  137.0095 F   0  0  0  0  0  0  0  0  0  0  0  0
  137.7407  119.2590  139.1901 C   0  0  0  0  0  0  0  0  0  0  0  0
  137.7364  119.8489  140.4323 C   0  0  0  0  0  0  0  0  0  0  0  0
  138.6808  119.5034  141.3616 F   0  0  0  0  0  0  0  0  0  0  0  0
  136.7836  120.7741  140.7160 C   0  0  0  0  0  0  0  0  0  0  0  0
  132.3439  123.6876  140.2098 C   0  0  0  0  0  0  0  0  0  0  0  0
  131.2911  124.5162  140.8297 C   0  0  0  0  0  0  0  0  0  0  0  0
  130.5876  126.8726  141.4720 C   0  0  1  0  0  0  0  0  0  0  0  0
  129.3314  126.3248  141.9797 C   0  0  0  0  0  0  0  0  0  0  0  0
  128.1248  126.9473  141.7879 C   0  0  0  0  0  0  0  0  0  0  0  0
  126.9351  126.4063  142.2833 C   0  0  0  0  0  0  0  0  0  0  0  0
  126.9658  125.2225  142.9805 C   0  0  0  0  0  0  0  0  0  0  0  0
  125.4618  124.5401  143.6059 Cl  0  0  0  0  0  0  0  0  0  0  0  0
  128.1522  124.5971  143.1768 C   0  0  0  0  0  0  0  0  0  0  0  0
  129.3141  125.1375  142.6858 C   0  0  0  0  0  0  0  0  0  0  0  0
  132.6959  128.9794  143.2097 H   0  0  0  0  0  0  0  0  0  0  0  0
  131.0166  129.4600  142.6757 H   0  0  0  0  0  0  0  0  0  0  0  0
  131.1937  128.5513  144.1975 H   0  0  0  0  0  0  0  0  0  0  0  0
  132.3680  126.1463  139.1172 H   0  0  0  0  0  0  0  0  0  0  0  0
  132.8376  127.5129  140.2313 H   0  0  0  0  0  0  0  0  0  0  0  0
  134.7848  126.0252  139.7989 H   0  0  0  0  0  0  0  0  0  0  0  0
  134.1589  125.7449  141.5076 H   0  0  0  0  0  0  0  0  0  0  0  0
  134.0902  121.7337  140.8125 H   0  0  0  0  0  0  0  0  0  0  0  0
  135.1589  120.7509  137.7797 H   0  0  0  0  0  0  0  0  0  0  0  0
  138.4988  118.5153  138.9485 H   0  0  0  0  0  0  0  0  0  0  0  0
  136.7810  121.2318  141.6815 H   0  0  0  0  0  0  0  0  0  0  0  0
  132.4465  122.7476  140.8282 H   0  0  0  0  0  0  0  0  0  0  0  0
  132.0524  123.3040  139.1929 H   0  0  0  0  0  0  0  0  0  0  0  0
  130.4281  124.5732  140.1032 H   0  0  0  0  0  0  0  0  0  0  0  0
  130.8393  124.0351  141.7370 H   0  0  0  0  0  0  0  0  0  0  0  0
  130.4745  127.6018  140.6265 H   0  0  0  0  0  0  0  0  0  0  0  0
  128.0260  127.8772  141.2500 H   0  0  0  0  0  0  0  0  0  0  0  0
  125.9787  126.8829  142.1414 H   0  0  0  0  0  0  0  0  0  0  0  0
  128.2028  123.6699  143.7189 H   0  0  0  0  0  0  0  0  0  0  0  0
  130.2350  124.6082  142.8643 H   0  0  0  0  0  0  0  0  0  0  0  0
  1  2  1  0
  2  3  1  0
  3  4  2  0
  3  5  1  0
  5  6  1  0
  6  7  1  0
  7  8  1  0
  8  9  1  0
  9 10  2  0
  9 11  1  0
 11 12  1  0
 12 13  2  0
 13 14  1  0
 14 15  1  0
 14 16  2  0
 16 17  1  0
 17 18  1  0
 17 19  2  0
  8 20  1  0
 20 21  1  0
  5 22  1  0
 22 23  1  0
 23 24  2  0
 24 25  1  0
 25 26  2  0
 26 27  1  0
 26 28  1  0
 28 29  2  0
 22  2  1  0
 29 23  1  0
 21  5  1  0
 19 12  1  0
  1 30  1  0
  1 31  1  0
  1 32  1  0
  6 33  1  0
  6 34  1  0
  7 35  1  0
  7 36  1  0
 11 37  1  0
 13 38  1  0
 16 39  1  0
 19 40  1  0
 20 41  1  0
 20 42  1  0
 21 43  1  0
 21 44  1  0
 22 45  1  6
 24 46  1  0
 25 47  1  0
 28 48  1  0
 29 49  1  0
M  END
>  <docking_score>  (1) 
-8.6199999999999992

$$$$

     RDKit          3D

 49 52  0  0  0  0  0  0  0  0999 V2000
  131.3980  134.0072  136.6303 C   0  0  0  0  0  0  0  0  0  0  0  0
  130.7277  134.0139  137.9156 N   0  0  0  0  0  0  0  0  0  0  0  0
  130.9720  133.3920  139.1621 C   0  0  0  0  0  0  0  0  0  0  0  0
  132.0314  132.9496  139.6815 O   0  0  0  0  0  0  0  0  0  0  0  0
  129.5386  133.5231  139.4712 C   0  0  0  0  0  0  0  0  0  0  0  0
  128.7911  132.2928  139.0115 C   0  0  0  0  0  0  0  0  0  0  0  0
  129.3911  131.1342  139.7938 C   0  0  0  0  0  0  0  0  0  0  0  0
  129.0459  131.3813  141.1883 N   0  0  0  0  0  0  0  0  0  0  0  0
  128.8985  130.2581  142.0484 C   0  0  0  0  0  0  0  0  0  0  0  0
  128.7100  130.4420  143.2632 O   0  0  0  0  0  0  0  0  0  0  0  0
  128.9639  128.9466  141.5391 N   0  0  0  0  0  0  0  0  0  0  0  0
  128.8344  127.7323  142.2438 C   0  0  0  0  0  0  0  0  0  0  0  0
  129.8980  127.1421  142.8638 C   0  0  0  0  0  0  0  0  0  0  0  0
  129.7794  125.9245  143.5535 C   0  0  0  0  0  0  0  0  0  0  0  0
  130.8703  125.3958  144.1435 F   0  0  0  0  0  0  0  0  0  0  0  0
  128.5475  125.3382  143.5869 C   0  0  0  0  0  0  0  0  0  0  0  0
  127.4539  125.9039  142.9743 C   0  0  0  0  0  0  0  0  0  0  0  0
  126.2350  125.2829  143.0317 F   0  0  0  0  0  0  0  0  0  0  0  0
  127.6069  127.0820  142.3163 C   0  0  0  0  0  0  0  0  0  0  0  0
  128.8486  132.6827  141.7368 C   0  0  0  0  0  0  0  0  0  0  0  0
  129.1691  133.8387  140.8763 C   0  0  0  0  0  0  0  0  0  0  0  0
  129.5506  134.6325  138.4921 C   0  0  1  0  0  0  0  0  0  0  0  0
  129.7541  135.9843  139.0088 C   0  0  0  0  0  0  0  0  0  0  0  0
  128.7327  136.8925  139.1199 C   0  0  0  0  0  0  0  0  0  0  0  0
  128.9498  138.1811  139.6158 C   0  0  0  0  0  0  0  0  0  0  0  0
  130.2138  138.5556  140.0037 C   0  0  0  0  0  0  0  0  0  0  0  0
  130.4866  140.1842  140.6299 Cl  0  0  0  0  0  0  0  0  0  0  0  0
  131.2321  137.6672  139.8988 C   0  0  0  0  0  0  0  0  0  0  0  0
  131.0073  136.4046  139.4105 C   0  0  0  0  0  0  0  0  0  0  0  0
  131.2798  134.9936  136.1297 H   0  0  0  0  0  0  0  0  0  0  0  0
  132.4587  133.7532  136.7683 H   0  0  0  0  0  0  0  0  0  0  0  0
  130.9408  133.1794  136.0336 H   0  0  0  0  0  0  0  0  0  0  0  0
  127.7217  132.3483  139.3165 H   0  0  0  0  0  0  0  0  0  0  0  0
  128.8751  132.1373  137.9184 H   0  0  0  0  0  0  0  0  0  0  0  0
  128.9733  130.1716  139.4412 H   0  0  0  0  0  0  0  0  0  0  0  0
  130.4864  131.1982  139.6571 H   0  0  0  0  0  0  0  0  0  0  0  0
  129.1304  128.8222  140.4854 H   0  0  0  0  0  0  0  0  0  0  0  0
  130.8809  127.5593  142.8781 H   0  0  0  0  0  0  0  0  0  0  0  0
  128.4397  124.3935  144.1181 H   0  0  0  0  0  0  0  0  0  0  0  0
  126.7567  127.5207  141.8406 H   0  0  0  0  0  0  0  0  0  0  0  0
  129.5012  132.7508  142.6565 H   0  0  0  0  0  0  0  0  0  0  0  0
  127.8032  132.7262  142.1510 H   0  0  0  0  0  0  0  0  0  0  0  0
  128.2534  134.4986  140.8343 H   0  0  0  0  0  0  0  0  0  0  0  0
  129.9535  134.5059  141.3217 H   0  0  0  0  0  0  0  0  0  0  0  0
  128.6815  134.5235  137.7905 H   0  0  0  0  0  0  0  0  0  0  0  0
  127.7168  136.6669  138.8358 H   0  0  0  0  0  0  0  0  0  0  0  0
  128.1581  138.9067  139.7095 H   0  0  0  0  0  0  0  0  0  0  0  0
  132.2300  137.9359  140.1955 H   0  0  0  0  0  0  0  0  0  0  0  0
  131.8443  135.7299  139.3438 H   0  0  0  0  0  0  0  0  0  0  0  0
  1  2  1  0
  2  3  1  0
  3  4  2  0
  3  5  1  0
  5  6  1  0
  6  7  1  0
  7  8  1  0
  8  9  1  0
  9 10  2  0
  9 11  1  0
 11 12  1  0
 12 13  2  0
 13 14  1  0
 14 15  1  0
 14 16  2  0
 16 17  1  0
 17 18  1  0
 17 19  2  0
  8 20  1  0
 20 21  1  0
  5 22  1  0
 22 23  1  0
 23 24  2  0
 24 25  1  0
 25 26  2  0
 26 27  1  0
 26 28  1  0
 28 29  2  0
 22  2  1  0
 29 23  1  0
 21  5  1  0
 19 12  1  0
  1 30  1  0
  1 31  1  0
  1 32  1  0
  6 33  1  0
  6 34  1  0
  7 35  1  0
  7 36  1  0
 11 37  1  0
 13 38  1  0
 16 39  1  0
 19 40  1  0
 20 41  1  0
 20 42  1  0
 21 43  1  0
 21 44  1  0
 22 45  1  6
 24 46  1  0
 25 47  1  0
 28 48  1  0
 29 49  1  0
M  END
>  <docking_score>  (2) 
-8.5099999999999998

$$$$

     RDKit          3D

 49 52  0  0  0  0  0  0  0  0999 V2000
  135.3150  131.5126  136.0291 C   0  0  0  0  0  0  0  0  0  0  0  0
  134.2752  130.6991  136.6276 N   0  0  0  0  0  0  0  0  0  0  0  0
  134.1457  130.0023  137.8516 C   0  0  0  0  0  0  0  0  0  0  0  0
  134.7052  130.1652  138.9687 O   0  0  0  0  0  0  0  0  0  0  0  0
  133.1567  129.1221  137.2077 C   0  0  0  0  0  0  0  0  0  0  0  0
  133.8438  127.9194  136.6035 C   0  0  0  0  0  0  0  0  0  0  0  0
  134.5055  127.1989  137.7685 C   0  0  0  0  0  0  0  0  0  0  0  0
  133.4128  126.7239  138.6082 N   0  0  0  0  0  0  0  0  0  0  0  0
  133.6257  125.5469  139.3779 C   0  0  0  0  0  0  0  0  0  0  0  0
  133.0254  125.4085  140.4576 O   0  0  0  0  0  0  0  0  0  0  0  0
  134.5057  124.5423  138.9306 N   0  0  0  0  0  0  0  0  0  0  0  0
  134.8255  123.3222  139.5607 C   0  0  0  0  0  0  0  0  0  0  0  0
  136.0922  123.0410  139.9856 C   0  0  0  0  0  0  0  0  0  0  0  0
  136.4208  121.8212  140.5991 C   0  0  0  0  0  0  0  0  0  0  0  0
  137.6918  121.6075  140.9949 F   0  0  0  0  0  0  0  0  0  0  0  0
  135.4189  120.9090  140.7616 C   0  0  0  0  0  0  0  0  0  0  0  0
  134.1317  121.1580  140.3464 C   0  0  0  0  0  0  0  0  0  0  0  0
  133.1553  120.2156  140.5285 F   0  0  0  0  0  0  0  0  0  0  0  0
  133.8514  122.3488  139.7568 C   0  0  0  0  0  0  0  0  0  0  0  0
  132.1458  127.3717  138.7009 C   0  0  0  0  0  0  0  0  0  0  0  0
  132.0000  128.6784  138.0296 C   0  0  0  0  0  0  0  0  0  0  0  0
  132.9477  130.2440  136.2658 C   0  0  1  0  0  0  0  0  0  0  0  0
  131.8696  131.1837  136.5667 C   0  0  0  0  0  0  0  0  0  0  0  0
  132.1055  132.4517  137.0325 C   0  0  0  0  0  0  0  0  0  0  0  0
  131.0591  133.3341  137.3152 C   0  0  0  0  0  0  0  0  0  0  0  0
  129.7595  132.9299  137.1247 C   0  0  0  0  0  0  0  0  0  0  0  0
  128.4385  134.0460  137.4823 Cl  0  0  0  0  0  0  0  0  0  0  0  0
  129.5129  131.6790  136.6646 C   0  0  0  0  0  0  0  0  0  0  0  0
  130.5482  130.8210  136.3904 C   0  0  0  0  0  0  0  0  0  0  0  0
  134.8670  132.2698  135.3483 H   0  0  0  0  0  0  0  0  0  0  0  0
  135.9122  131.9891  136.8196 H   0  0  0  0  0  0  0  0  0  0  0  0
  135.9965  130.8133  135.4840 H   0  0  0  0  0  0  0  0  0  0  0  0
  133.0944  127.2084  136.1882 H   0  0  0  0  0  0  0  0  0  0  0  0
  134.5793  128.2052  135.8266 H   0  0  0  0  0  0  0  0  0  0  0  0
  135.1251  126.3578  137.4018 H   0  0  0  0  0  0  0  0  0  0  0  0
  135.0979  127.9588  138.3108 H   0  0  0  0  0  0  0  0  0  0  0  0
  135.0106  124.6938  137.9949 H   0  0  0  0  0  0  0  0  0  0  0  0
  136.9117  123.7192  139.8929 H   0  0  0  0  0  0  0  0  0  0  0  0
  135.6584  119.9582  141.2359 H   0  0  0  0  0  0  0  0  0  0  0  0
  132.8510  122.5414  139.4345 H   0  0  0  0  0  0  0  0  0  0  0  0
  131.9399  127.5282  139.8007 H   0  0  0  0  0  0  0  0  0  0  0  0
  131.3579  126.6320  138.3875 H   0  0  0  0  0  0  0  0  0  0  0  0
  131.1117  128.6095  137.3355 H   0  0  0  0  0  0  0  0  0  0  0  0
  131.7161  129.5002  138.7387 H   0  0  0  0  0  0  0  0  0  0  0  0
  132.9526  129.8561  135.2128 H   0  0  0  0  0  0  0  0  0  0  0  0
  133.0988  132.8357  137.2040 H   0  0  0  0  0  0  0  0  0  0  0  0
  131.2274  134.3337  137.6818 H   0  0  0  0  0  0  0  0  0  0  0  0
  128.5051  131.3389  136.5074 H   0  0  0  0  0  0  0  0  0  0  0  0
  130.3081  129.8361  136.0267 H   0  0  0  0  0  0  0  0  0  0  0  0
  1  2  1  0
  2  3  1  0
  3  4  2  0
  3  5  1  0
  5  6  1  0
  6  7  1  0
  7  8  1  0
  8  9  1  0
  9 10  2  0
  9 11  1  0
 11 12  1  0
 12 13  2  0
 13 14  1  0
 14 15  1  0
 14 16  2  0
 16 17  1  0
 17 18  1  0
 17 19  2  0
  8 20  1  0
 20 21  1  0
  5 22  1  0
 22 23  1  0
 23 24  2  0
 24 25  1  0
 25 26  2  0
 26 27  1  0
 26 28  1  0
 28 29  2  0
 22  2  1  0
 29 23  1  0
 21  5  1  0
 19 12  1  0
  1 30  1  0
  1 31  1  0
  1 32  1  0
  6 33  1  0
  6 34  1  0
  7 35  1  0
  7 36  1  0
 11 37  1  0
 13 38  1  0
 16 39  1  0
 19 40  1  0
 20 41  1  0
 20 42  1  0
 21 43  1  0
 21 44  1  0
 22 45  1  6
 24 46  1  0
 25 47  1  0
 28 48  1  0
 29 49  1  0
M  END
>  <docking_score>  (3) 
-8.2579999999999991

$$$$
