
     RDKit          3D

 56 59  0  0  0  0  0  0  0  0999 V2000
  132.9871  131.0863  135.9103 C   0  0  0  0  0  0  0  0  0  0  0  0
  131.5895  130.6191  135.7219 C   0  0  0  0  0  0  0  0  0  0  0  0
  131.6390  129.1845  135.1841 C   0  0  0  0  0  0  0  0  0  0  0  0
  130.7249  130.6440  136.8170 N   0  0  0  0  0  0  0  0  0  0  0  0
  130.1255  129.4973  137.3672 C   0  0  0  0  0  0  0  0  0  0  0  0
  130.5624  129.9815  138.7592 C   0  0  0  0  0  0  0  0  0  0  0  0
  129.4519  130.1953  139.7272 C   0  0  0  0  0  0  0  0  0  0  0  0
  129.8145  129.4532  141.0320 C   0  0  0  0  0  0  0  0  0  0  0  0
  129.8656  128.0710  140.6839 N   0  0  0  0  0  0  0  0  0  0  0  0
  129.0512  127.0822  141.2689 C   0  0  0  0  0  0  0  0  0  0  0  0
  129.3794  125.8462  141.1807 O   0  0  0  0  0  0  0  0  0  0  0  0
  127.8760  127.4050  141.9554 N   0  0  0  0  0  0  0  0  0  0  0  0
  127.0061  126.4670  142.5775 C   0  0  0  0  0  0  0  0  0  0  0  0
  127.5115  125.6740  143.6231 C   0  0  0  0  0  0  0  0  0  0  0  0
  126.7520  124.7313  144.2675 C   0  0  0  0  0  0  0  0  0  0  0  0
  125.4333  124.5162  143.9104 C   0  0  0  0  0  0  0  0  0  0  0  0
  124.7138  123.5769  144.5691 F   0  0  0  0  0  0  0  0  0  0  0  0
  124.9066  125.2695  142.8961 C   0  0  0  0  0  0  0  0  0  0  0  0
  123.6249  125.0684  142.5403 F   0  0  0  0  0  0  0  0  0  0  0  0
  125.7005  126.2308  142.2473 C   0  0  0  0  0  0  0  0  0  0  0  0
  130.8510  127.7209  139.6453 C   0  0  0  0  0  0  0  0  0  0  0  0
  131.5851  128.9911  139.2864 C   0  0  0  0  0  0  0  0  0  0  0  0
  131.1313  131.1848  138.0757 C   0  0  2  0  0  0  0  0  0  0  0  0
  130.4396  132.4793  138.2850 C   0  0  0  0  0  0  0  0  0  0  0  0
  130.8438  133.3723  139.2453 C   0  0  0  0  0  0  0  0  0  0  0  0
  130.1628  134.5642  139.3938 C   0  0  0  0  0  0  0  0  0  0  0  0
  129.0811  134.8855  138.5995 C   0  0  0  0  0  0  0  0  0  0  0  0
  128.2270  136.4241  138.8135 Cl  0  0  0  0  0  0  0  0  0  0  0  0
  128.6686  133.9937  137.6321 C   0  0  0  0  0  0  0  0  0  0  0  0
  129.3614  132.7998  137.4937 C   0  0  0  0  0  0  0  0  0  0  0  0
  133.3331  131.5069  134.9228 H   0  0  0  0  0  0  0  0  0  0  0  0
  133.6939  130.2632  136.1392 H   0  0  0  0  0  0  0  0  0  0  0  0
  133.0762  131.9203  136.6297 H   0  0  0  0  0  0  0  0  0  0  0  0
  131.1378  131.2491  134.9027 H   0  0  0  0  0  0  0  0  0  0  0  0
  132.6254  128.7127  135.4286 H   0  0  0  0  0  0  0  0  0  0  0  0
  130.7883  128.5916  135.5722 H   0  0  0  0  0  0  0  0  0  0  0  0
  131.5440  129.1793  134.0700 H   0  0  0  0  0  0  0  0  0  0  0  0
  130.5820  128.5666  137.0257 H   0  0  0  0  0  0  0  0  0  0  0  0
  129.0029  129.4725  137.3487 H   0  0  0  0  0  0  0  0  0  0  0  0
  128.5005  129.7172  139.3985 H   0  0  0  0  0  0  0  0  0  0  0  0
  129.2917  131.2821  139.9939 H   0  0  0  0  0  0  0  0  0  0  0  0
  130.8004  129.8285  141.4043 H   0  0  0  0  0  0  0  0  0  0  0  0
  129.0584  129.7646  141.7484 H   0  0  0  0  0  0  0  0  0  0  0  0
  127.5806  128.4402  142.0417 H   0  0  0  0  0  0  0  0  0  0  0  0
  128.5377  125.8271  143.9172 H   0  0  0  0  0  0  0  0  0  0  0  0
  127.1481  124.1166  145.0797 H   0  0  0  0  0  0  0  0  0  0  0  0
  125.2416  126.7846  141.4508 H   0  0  0  0  0  0  0  0  0  0  0  0
  130.3801  127.3145  138.7490 H   0  0  0  0  0  0  0  0  0  0  0  0
  131.5316  126.9580  140.0930 H   0  0  0  0  0  0  0  0  0  0  0  0
  132.2241  128.7036  138.4053 H   0  0  0  0  0  0  0  0  0  0  0  0
  132.2333  129.3869  140.0668 H   0  0  0  0  0  0  0  0  0  0  0  0
  132.2486  131.2590  138.2161 H   0  0  0  0  0  0  0  0  0  0  0  0
  131.7039  133.1321  139.8877 H   0  0  0  0  0  0  0  0  0  0  0  0
  130.5058  135.2473  140.1594 H   0  0  0  0  0  0  0  0  0  0  0  0
  127.8195  134.2734  137.0269 H   0  0  0  0  0  0  0  0  0  0  0  0
  128.9811  132.1398  136.7082 H   0  0  0  0  0  0  0  0  0  0  0  0
  1  2  1  0
  2  3  1  0
  2  4  1  0
  4  5  1  0
  5  6  1  0
  6  7  1  0
  7  8  1  0
  8  9  1  0
  9 10  1  0
 10 11  2  0
 10 12  1  0
 12 13  1  0
 13 14  2  0
 14 15  1  0
 15 16  2  0
 16 17  1  0
 16 18  1  0
 18 19  1  0
 18 20  2  0
  9 21  1  0
 21 22  1  0
  6 23  1  0
 23 24  1  0
 24 25  2  0
 25 26  1  0
 26 27  2  0
 27 28  1  0
 27 29  1  0
 29 30  2  0
 23  4  1  0
 30 24  1  0
 22  6  1  0
 20 13  1  0
  1 31  1  0
  1 32  1  0
  1 33  1  0
  2 34  1  0
  3 35  1  0
  3 36  1  0
  3 37  1  0
  5 38  1  0
  5 39  1  0
  7 40  1  0
  7 41  1  0
  8 42  1  0
  8 43  1  0
 12 44  1  0
 14 45  1  0
 15 46  1  0
 20 47  1  0
 21 48  1  0
 21 49  1  0
 22 50  1  0
 22 51  1  0
 23 52  1  6
 25 53  1  0
 26 54  1  0
 29 55  1  0
 30 56  1  0
M  END
>  <docking_score>  (1) 
-7.71

$$$$

     RDKit          3D

 56 59  0  0  0  0  0  0  0  0999 V2000
  131.6009  130.9274  135.2649 C   0  0  0  0  0  0  0  0  0  0  0  0
  131.9252  129.5203  135.6141 C   0  0  0  0  0  0  0  0  0  0  0  0
  131.6771  128.6559  134.3727 C   0  0  0  0  0  0  0  0  0  0  0  0
  133.2016  129.2307  136.0983 N   0  0  0  0  0  0  0  0  0  0  0  0
  134.3564  129.9477  135.7387 C   0  0  0  0  0  0  0  0  0  0  0  0
  134.7194  130.0392  137.2296 C   0  0  0  0  0  0  0  0  0  0  0  0
  136.0315  129.4383  137.5949 C   0  0  0  0  0  0  0  0  0  0  0  0
  136.8129  130.4807  138.4241 C   0  0  0  0  0  0  0  0  0  0  0  0
  137.0361  131.5801  137.5433 N   0  0  0  0  0  0  0  0  0  0  0  0
  138.3130  132.0574  137.1896 C   0  0  0  0  0  0  0  0  0  0  0  0
  139.0985  132.5172  138.0921 O   0  0  0  0  0  0  0  0  0  0  0  0
  138.7639  132.0479  135.8655 N   0  0  0  0  0  0  0  0  0  0  0  0
  140.0388  132.5049  135.4304 C   0  0  0  0  0  0  0  0  0  0  0  0
  140.0973  133.6311  134.5903 C   0  0  0  0  0  0  0  0  0  0  0  0
  141.2796  134.1303  134.1069 C   0  0  0  0  0  0  0  0  0  0  0  0
  142.4863  133.5370  134.4305 C   0  0  0  0  0  0  0  0  0  0  0  0
  143.6339  134.0577  133.9348 F   0  0  0  0  0  0  0  0  0  0  0  0
  142.4688  132.4380  135.2461 C   0  0  0  0  0  0  0  0  0  0  0  0
  143.6369  131.8528  135.5671 F   0  0  0  0  0  0  0  0  0  0  0  0
  141.2472  131.9406  135.7317 C   0  0  0  0  0  0  0  0  0  0  0  0
  135.8179  132.2123  137.0065 C   0  0  0  0  0  0  0  0  0  0  0  0
  134.6397  131.5016  137.6295 C   0  0  0  0  0  0  0  0  0  0  0  0
  133.4866  129.2351  137.4985 C   0  0  2  0  0  0  0  0  0  0  0  0
  133.6702  127.8358  137.9529 C   0  0  0  0  0  0  0  0  0  0  0  0
  133.7924  127.5131  139.2810 C   0  0  0  0  0  0  0  0  0  0  0  0
  133.9592  126.1921  139.6462 C   0  0  0  0  0  0  0  0  0  0  0  0
  134.0066  125.1807  138.7087 C   0  0  0  0  0  0  0  0  0  0  0  0
  134.2214  123.4934  139.2083 Cl  0  0  0  0  0  0  0  0  0  0  0  0
  133.8845  125.4964  137.3720 C   0  0  0  0  0  0  0  0  0  0  0  0
  133.7176  126.8275  137.0188 C   0  0  0  0  0  0  0  0  0  0  0  0
  131.4769  130.9720  134.1449 H   0  0  0  0  0  0  0  0  0  0  0  0
  132.4243  131.6335  135.4944 H   0  0  0  0  0  0  0  0  0  0  0  0
  130.6351  131.2693  135.6790 H   0  0  0  0  0  0  0  0  0  0  0  0
  131.1727  129.1893  136.3861 H   0  0  0  0  0  0  0  0  0  0  0  0
  132.1631  129.1180  133.4752 H   0  0  0  0  0  0  0  0  0  0  0  0
  132.0230  127.6181  134.5431 H   0  0  0  0  0  0  0  0  0  0  0  0
  130.5829  128.5907  134.1518 H   0  0  0  0  0  0  0  0  0  0  0  0
  134.1382  130.8969  135.2462 H   0  0  0  0  0  0  0  0  0  0  0  0
  135.1615  129.3571  135.2247 H   0  0  0  0  0  0  0  0  0  0  0  0
  136.6800  129.2563  136.7072 H   0  0  0  0  0  0  0  0  0  0  0  0
  135.9380  128.5078  138.2298 H   0  0  0  0  0  0  0  0  0  0  0  0
  136.2008  130.7737  139.3135 H   0  0  0  0  0  0  0  0  0  0  0  0
  137.6844  129.9459  138.7932 H   0  0  0  0  0  0  0  0  0  0  0  0
  138.1182  131.6649  135.0891 H   0  0  0  0  0  0  0  0  0  0  0  0
  139.1669  134.1086  134.3270 H   0  0  0  0  0  0  0  0  0  0  0  0
  141.3213  135.0058  133.4541 H   0  0  0  0  0  0  0  0  0  0  0  0
  141.2898  131.0694  136.3568 H   0  0  0  0  0  0  0  0  0  0  0  0
  135.7527  132.1285  135.9207 H   0  0  0  0  0  0  0  0  0  0  0  0
  135.8587  133.2883  137.3001 H   0  0  0  0  0  0  0  0  0  0  0  0
  133.7447  131.9236  137.0928 H   0  0  0  0  0  0  0  0  0  0  0  0
  134.5107  131.6690  138.6978 H   0  0  0  0  0  0  0  0  0  0  0  0
  132.7422  129.8043  138.1274 H   0  0  0  0  0  0  0  0  0  0  0  0
  133.7574  128.3069  140.0419 H   0  0  0  0  0  0  0  0  0  0  0  0
  134.0524  125.9698  140.7009 H   0  0  0  0  0  0  0  0  0  0  0  0
  133.9258  124.6836  136.6627 H   0  0  0  0  0  0  0  0  0  0  0  0
  133.6276  127.0065  135.9431 H   0  0  0  0  0  0  0  0  0  0  0  0
  1  2  1  0
  2  3  1  0
  2  4  1  0
  4  5  1  0
  5  6  1  0
  6  7  1  0
  7  8  1  0
  8  9  1  0
  9 10  1  0
 10 11  2  0
 10 12  1  0
 12 13  1  0
 13 14  2  0
 14 15  1  0
 15 16  2  0
 16 17  1  0
 16 18  1  0
 18 19  1  0
 18 20  2  0
  9 21  1  0
 21 22  1  0
  6 23  1  0
 23 24  1  0
 24 25  2  0
 25 26  1  0
 26 27  2  0
 27 28  1  0
 27 29  1  0
 29 30  2  0
 23  4  1  0
 30 24  1  0
 22  6  1  0
 20 13  1  0
  1 31  1  0
  1 32  1  0
  1 33  1  0
  2 34  1  0
  3 35  1  0
  3 36  1  0
  3 37  1  0
  5 38  1  0
  5 39  1  0
  7 40  1  0
  7 41  1  0
  8 42  1  0
  8 43  1  0
 12 44  1  0
 14 45  1  0
 15 46  1  0
 20 47  1  0
 21 48  1  0
 21 49  1  0
 22 50  1  0
 22 51  1  0
 23 52  1  1
 25 53  1  0
 26 54  1  0
 29 55  1  0
 30 56  1  0
M  END
>  <docking_score>  (2) 
-7.4569999999999999

$$$$

     RDKit          3D

 56 59  0  0  0  0  0  0  0  0999 V2000
  130.1161  128.6902  138.0932 C   0  0  0  0  0  0  0  0  0  0  0  0
  130.7858  128.9356  136.7901 C   0  0  0  0  0  0  0  0  0  0  0  0
  130.3653  130.3247  136.2968 C   0  0  0  0  0  0  0  0  0  0  0  0
  132.1777  128.8552  136.7301 N   0  0  0  0  0  0  0  0  0  0  0  0
  132.9838  129.7581  136.0148 C   0  0  0  0  0  0  0  0  0  0  0  0
  133.8774  129.8890  137.2587 C   0  0  0  0  0  0  0  0  0  0  0  0
  135.3018  129.5090  137.0520 C   0  0  0  0  0  0  0  0  0  0  0  0
  136.1797  130.6555  137.5992 C   0  0  0  0  0  0  0  0  0  0  0  0
  135.8798  131.7882  136.7859 N   0  0  0  0  0  0  0  0  0  0  0  0
  136.8347  132.4749  136.0114 C   0  0  0  0  0  0  0  0  0  0  0  0
  136.4711  133.4463  135.2582 O   0  0  0  0  0  0  0  0  0  0  0  0
  138.1901  132.1299  136.0341 N   0  0  0  0  0  0  0  0  0  0  0  0
  139.2135  132.7776  135.2881 C   0  0  0  0  0  0  0  0  0  0  0  0
  140.3481  133.2476  135.9731 C   0  0  0  0  0  0  0  0  0  0  0  0
  141.3745  133.9003  135.3397 C   0  0  0  0  0  0  0  0  0  0  0  0
  141.3371  134.1282  133.9760 C   0  0  0  0  0  0  0  0  0  0  0  0
  142.3689  134.7758  133.3846 F   0  0  0  0  0  0  0  0  0  0  0  0
  140.2478  133.6851  133.2757 C   0  0  0  0  0  0  0  0  0  0  0  0
  140.2009  133.9017  131.9488 F   0  0  0  0  0  0  0  0  0  0  0  0
  139.2055  133.0183  133.9423 C   0  0  0  0  0  0  0  0  0  0  0  0
  134.4698  132.2168  136.8012 C   0  0  0  0  0  0  0  0  0  0  0  0
  133.7435  131.3126  137.7688 C   0  0  0  0  0  0  0  0  0  0  0  0
  132.9781  128.8884  137.9135 C   0  0  2  0  0  0  0  0  0  0  0  0
  133.5277  127.5330  138.1564 C   0  0  0  0  0  0  0  0  0  0  0  0
  133.4180  126.5273  137.2293 C   0  0  0  0  0  0  0  0  0  0  0  0
  133.9513  125.2849  137.5089 C   0  0  0  0  0  0  0  0  0  0  0  0
  134.5955  125.0235  138.7010 C   0  0  0  0  0  0  0  0  0  0  0  0
  135.2705  123.4180  139.0314 Cl  0  0  0  0  0  0  0  0  0  0  0  0
  134.7100  126.0287  139.6380 C   0  0  0  0  0  0  0  0  0  0  0  0
  134.1697  127.2721  139.3444 C   0  0  0  0  0  0  0  0  0  0  0  0
  129.9836  127.5748  138.1942 H   0  0  0  0  0  0  0  0  0  0  0  0
  129.0911  129.1101  138.1417 H   0  0  0  0  0  0  0  0  0  0  0  0
  130.7281  128.9909  138.9629 H   0  0  0  0  0  0  0  0  0  0  0  0
  130.3586  128.1954  136.0541 H   0  0  0  0  0  0  0  0  0  0  0  0
  130.9427  131.1189  136.8364 H   0  0  0  0  0  0  0  0  0  0  0  0
  130.4817  130.4016  135.1984 H   0  0  0  0  0  0  0  0  0  0  0  0
  129.2833  130.5070  136.5121 H   0  0  0  0  0  0  0  0  0  0  0  0
  132.4545  130.6644  135.7156 H   0  0  0  0  0  0  0  0  0  0  0  0
  133.6051  129.3159  135.1905 H   0  0  0  0  0  0  0  0  0  0  0  0
  135.5757  129.4486  135.9735 H   0  0  0  0  0  0  0  0  0  0  0  0
  135.5998  128.5677  137.6022 H   0  0  0  0  0  0  0  0  0  0  0  0
  135.9234  130.8315  138.6738 H   0  0  0  0  0  0  0  0  0  0  0  0
  137.1948  130.2677  137.5681 H   0  0  0  0  0  0  0  0  0  0  0  0
  138.5183  131.3145  136.6617 H   0  0  0  0  0  0  0  0  0  0  0  0
  140.3967  133.0790  137.0372 H   0  0  0  0  0  0  0  0  0  0  0  0
  142.2549  134.2644  135.8752 H   0  0  0  0  0  0  0  0  0  0  0  0
  138.3696  132.7033  133.3475 H   0  0  0  0  0  0  0  0  0  0  0  0
  134.0030  132.1376  135.8184 H   0  0  0  0  0  0  0  0  0  0  0  0
  134.4616  133.2808  137.1382 H   0  0  0  0  0  0  0  0  0  0  0  0
  132.6588  131.5875  137.6456 H   0  0  0  0  0  0  0  0  0  0  0  0
  134.0145  131.4424  138.8155 H   0  0  0  0  0  0  0  0  0  0  0  0
  132.4597  129.3181  138.8190 H   0  0  0  0  0  0  0  0  0  0  0  0
  132.9072  126.7181  136.2738 H   0  0  0  0  0  0  0  0  0  0  0  0
  133.8488  124.5131  136.7579 H   0  0  0  0  0  0  0  0  0  0  0  0
  135.2191  125.7935  140.5606 H   0  0  0  0  0  0  0  0  0  0  0  0
  134.2962  128.0221  140.1310 H   0  0  0  0  0  0  0  0  0  0  0  0
  1  2  1  0
  2  3  1  0
  2  4  1  0
  4  5  1  0
  5  6  1  0
  6  7  1  0
  7  8  1  0
  8  9  1  0
  9 10  1  0
 10 11  2  0
 10 12  1  0
 12 13  1  0
 13 14  2  0
 14 15  1  0
 15 16  2  0
 16 17  1  0
 16 18  1  0
 18 19  1  0
 18 20  2  0
  9 21  1  0
 21 22  1  0
  6 23  1  0
 23 24  1  0
 24 25  2  0
 25 26  1  0
 26 27  2  0
 27 28  1  0
 27 29  1  0
 29 30  2  0
 23  4  1  0
 30 24  1  0
 22  6  1  0
 20 13  1  0
  1 31  1  0
  1 32  1  0
  1 33  1  0
  2 34  1  0
  3 35  1  0
  3 36  1  0
  3 37  1  0
  5 38  1  0
  5 39  1  0
  7 40  1  0
  7 41  1  0
  8 42  1  0
  8 43  1  0
 12 44  1  0
 14 45  1  0
 15 46  1  0
 20 47  1  0
 21 48  1  0
 21 49  1  0
 22 50  1  0
 22 51  1  0
 23 52  1  1
 25 53  1  0
 26 54  1  0
 29 55  1  0
 30 56  1  0
M  END
>  <docking_score>  (3) 
-7.4480000000000004

$$$$
