
     RDKit          3D

 68 71  0  0  0  0  0  0  0  0999 V2000
  139.1226  128.3651  146.5086 C   0  0  0  0  0  0  0  0  0  0  0  0
  137.8640  127.8727  145.8190 C   0  0  0  0  0  0  0  0  0  0  0  0
  138.1769  127.7434  144.3494 C   0  0  2  0  0  0  0  0  0  0  0  0
  139.6321  128.1298  144.1978 C   0  0  0  0  0  0  0  0  0  0  0  0
  137.3393  128.5701  143.4426 C   0  0  2  0  0  0  0  0  0  0  0  0
  137.9745  129.6653  142.7805 N   0  0  0  0  0  0  0  0  0  0  0  0
  137.7076  130.2345  141.5277 C   0  0  0  0  0  0  0  0  0  0  0  0
  136.7902  129.7383  140.8148 O   0  0  0  0  0  0  0  0  0  0  0  0
  138.4571  131.3684  141.0426 N   0  0  0  0  0  0  0  0  0  0  0  0
  139.6986  131.6918  141.6512 C   0  0  0  0  0  0  0  0  0  0  0  0
  140.1811  133.0907  141.2986 C   0  0  0  0  0  0  0  0  0  0  0  0
  140.2363  133.2233  139.8371 C   0  0  0  0  0  0  0  0  0  0  0  0
  139.0338  132.7080  139.0884 C   0  0  0  0  0  0  0  0  0  0  0  0
  137.9518  132.1501  139.9621 C   0  0  0  0  0  0  0  0  0  0  0  0
  141.5023  132.6270  139.1857 C   0  0  0  0  0  0  0  0  0  0  0  0
  141.2262  133.5752  138.1250 N   0  0  0  0  0  0  0  0  0  0  0  0
  141.2968  133.7038  136.7260 C   0  0  0  0  0  0  0  0  0  0  0  0
  140.1771  134.0097  135.9951 C   0  0  0  0  0  0  0  0  0  0  0  0
  140.1637  134.1528  134.6234 C   0  0  0  0  0  0  0  0  0  0  0  0
  141.3476  133.9786  133.9385 C   0  0  0  0  0  0  0  0  0  0  0  0
  142.4940  133.6678  134.6634 C   0  0  0  0  0  0  0  0  0  0  0  0
  143.6721  133.4944  133.9823 F   0  0  0  0  0  0  0  0  0  0  0  0
  142.4746  133.5323  136.0271 C   0  0  0  0  0  0  0  0  0  0  0  0
  140.7803  134.4833  139.2123 C   0  0  2  0  0  0  0  0  0  0  0  0
  141.9955  135.0628  139.8262 C   0  0  0  0  0  0  0  0  0  0  0  0
  142.8608  135.8119  139.0216 C   0  0  0  0  0  0  0  0  0  0  0  0
  144.0017  136.4230  139.4680 C   0  0  0  0  0  0  0  0  0  0  0  0
  144.3240  136.2935  140.8021 C   0  0  0  0  0  0  0  0  0  0  0  0
  145.7714  137.0648  141.3812 Cl  0  0  0  0  0  0  0  0  0  0  0  0
  143.4768  135.5560  141.6080 C   0  0  0  0  0  0  0  0  0  0  0  0
  142.3323  134.9461  141.1500 C   0  0  0  0  0  0  0  0  0  0  0  0
  136.0374  128.8870  144.0053 C   0  0  0  0  0  0  0  0  0  0  0  0
  135.7881  130.0864  144.4265 O   0  0  0  0  0  0  0  0  0  0  0  0
  134.9671  128.0247  144.1572 O   0  0  0  0  0  0  0  0  0  0  0  0
  133.7065  128.4455  144.6375 C   0  0  0  0  0  0  0  0  0  0  0  0
  139.1831  127.9590  147.5605 H   0  0  0  0  0  0  0  0  0  0  0  0
  140.0387  128.1027  145.9709 H   0  0  0  0  0  0  0  0  0  0  0  0
  139.0762  129.4732  146.6467 H   0  0  0  0  0  0  0  0  0  0  0  0
  137.1427  128.7739  145.8790 H   0  0  0  0  0  0  0  0  0  0  0  0
  137.3917  127.0542  146.3204 H   0  0  0  0  0  0  0  0  0  0  0  0
  138.1037  126.6399  144.0949 H   0  0  0  0  0  0  0  0  0  0  0  0
  139.7895  129.1215  143.7474 H   0  0  0  0  0  0  0  0  0  0  0  0
  140.1656  127.3632  143.5475 H   0  0  0  0  0  0  0  0  0  0  0  0
  140.2004  128.0856  145.1483 H   0  0  0  0  0  0  0  0  0  0  0  0
  137.1571  127.8149  142.5662 H   0  0  0  0  0  0  0  0  0  0  0  0
  138.7846  130.1362  143.3126 H   0  0  0  0  0  0  0  0  0  0  0  0
  140.4810  130.9599  141.4494 H   0  0  0  0  0  0  0  0  0  0  0  0
  139.5235  131.7356  142.7668 H   0  0  0  0  0  0  0  0  0  0  0  0
  139.5332  133.8164  141.7862 H   0  0  0  0  0  0  0  0  0  0  0  0
  141.2397  133.1026  141.6953 H   0  0  0  0  0  0  0  0  0  0  0  0
  138.5564  133.5310  138.4794 H   0  0  0  0  0  0  0  0  0  0  0  0
  139.2973  131.9254  138.3490 H   0  0  0  0  0  0  0  0  0  0  0  0
  137.2464  131.5846  139.3207 H   0  0  0  0  0  0  0  0  0  0  0  0
  137.3986  133.0249  140.3967 H   0  0  0  0  0  0  0  0  0  0  0  0
  141.3634  131.5754  138.9504 H   0  0  0  0  0  0  0  0  0  0  0  0
  142.3576  132.8934  139.8354 H   0  0  0  0  0  0  0  0  0  0  0  0
  139.2233  134.1523  136.5246 H   0  0  0  0  0  0  0  0  0  0  0  0
  139.2393  134.3958  134.1154 H   0  0  0  0  0  0  0  0  0  0  0  0
  141.3809  134.0827  132.8544 H   0  0  0  0  0  0  0  0  0  0  0  0
  143.3665  133.2887  136.6074 H   0  0  0  0  0  0  0  0  0  0  0  0
  140.0212  135.2077  138.8731 H   0  0  0  0  0  0  0  0  0  0  0  0
  142.6052  135.9149  137.9601 H   0  0  0  0  0  0  0  0  0  0  0  0
  144.6232  136.9899  138.7747 H   0  0  0  0  0  0  0  0  0  0  0  0
  143.7745  135.4832  142.6534 H   0  0  0  0  0  0  0  0  0  0  0  0
  141.7006  134.3968  141.8358 H   0  0  0  0  0  0  0  0  0  0  0  0
  132.9629  128.5011  143.8167 H   0  0  0  0  0  0  0  0  0  0  0  0
  133.3495  127.6317  145.3345 H   0  0  0  0  0  0  0  0  0  0  0  0
  133.7849  129.3716  145.2149 H   0  0  0  0  0  0  0  0  0  0  0  0
  1  2  1  0
  2  3  1  0
  3  4  1  0
  3  5  1  0
  5  6  1  0
  6  7  1  0
  7  8  2  0
  7  9  1  0
  9 10  1  0
 10 11  1  0
 11 12  1  0
 12 13  1  0
 13 14  1  0
 12 15  1  0
 15 16  1  0
 16 17  1  0
 17 18  2  0
 18 19  1  0
 19 20  2  0
 20 21  1  0
 21 22  1  0
 21 23  2  0
 16 24  1  0
 24 25  1  0
 25 26  2  0
 26 27  1  0
 27 28  2  0
 28 29  1  0
 28 30  1  0
 30 31  2  0
  5 32  1  0
 32 33  2  0
 32 34  1  0
 34 35  1  0
 14  9  1  0
 23 17  1  0
 31 25  1  0
 24 12  1  0
  1 36  1  0
  1 37  1  0
  1 38  1  0
  2 39  1  0
  2 40  1  0
  3 41  1  6
  4 42  1  0
  4 43  1  0
  4 44  1  0
  5 45  1  6
  6 46  1  0
 10 47  1  0
 10 48  1  0
 11 49  1  0
 11 50  1  0
 13 51  1  0
 13 52  1  0
 14 53  1  0
 14 54  1  0
 15 55  1  0
 15 56  1  0
 18 57  1  0
 19 58  1  0
 20 59  1  0
 23 60  1  0
 24 61  1  6
 26 62  1  0
 27 63  1  0
 30 64  1  0
 31 65  1  0
 35 66  1  0
 35 67  1  0
 35 68  1  0
M  END
>  <docking_score>  (1) 
-7.4000000000000004

$$$$

     RDKit          3D

 68 71  0  0  0  0  0  0  0  0999 V2000
  133.7080  134.5118  136.6708 C   0  0  0  0  0  0  0  0  0  0  0  0
  133.1282  134.0872  138.0070 C   0  0  0  0  0  0  0  0  0  0  0  0
  131.9313  133.2151  137.7219 C   0  0  2  0  0  0  0  0  0  0  0  0
  131.4887  133.5617  136.3169 C   0  0  0  0  0  0  0  0  0  0  0  0
  130.7906  133.3685  138.6614 C   0  0  2  0  0  0  0  0  0  0  0  0
  130.6854  134.6058  139.3683 N   0  0  0  0  0  0  0  0  0  0  0  0
  129.7770  135.6603  139.2029 C   0  0  0  0  0  0  0  0  0  0  0  0
  128.9035  135.5767  138.2940 O   0  0  0  0  0  0  0  0  0  0  0  0
  129.8226  136.8304  140.0465 N   0  0  0  0  0  0  0  0  0  0  0  0
  129.7727  138.1183  139.4507 C   0  0  0  0  0  0  0  0  0  0  0  0
  130.1966  139.2255  140.4039 C   0  0  0  0  0  0  0  0  0  0  0  0
  129.3746  139.1514  141.6185 C   0  0  0  0  0  0  0  0  0  0  0  0
  129.2008  137.7746  142.2070 C   0  0  0  0  0  0  0  0  0  0  0  0
  129.9145  136.6876  141.4625 C   0  0  0  0  0  0  0  0  0  0  0  0
  127.9801  139.8012  141.4907 C   0  0  0  0  0  0  0  0  0  0  0  0
  128.0742  139.9414  142.9301 N   0  0  0  0  0  0  0  0  0  0  0  0
  127.2796  139.8863  144.0895 C   0  0  0  0  0  0  0  0  0  0  0  0
  127.2121  138.7377  144.8364 C   0  0  0  0  0  0  0  0  0  0  0  0
  126.4578  138.6037  145.9832 C   0  0  0  0  0  0  0  0  0  0  0  0
  125.7232  139.6894  146.4105 C   0  0  0  0  0  0  0  0  0  0  0  0
  125.7792  140.8633  145.6654 C   0  0  0  0  0  0  0  0  0  0  0  0
  125.0484  141.9437  146.0903 F   0  0  0  0  0  0  0  0  0  0  0  0
  126.5390  140.9649  144.5293 C   0  0  0  0  0  0  0  0  0  0  0  0
  129.5175  140.1996  142.6932 C   0  0  2  0  0  0  0  0  0  0  0  0
  129.6441  141.6039  142.2443 C   0  0  0  0  0  0  0  0  0  0  0  0
  130.5871  141.9094  141.2570 C   0  0  0  0  0  0  0  0  0  0  0  0
  130.7873  143.1593  140.7352 C   0  0  0  0  0  0  0  0  0  0  0  0
  130.0079  144.1910  141.2131 C   0  0  0  0  0  0  0  0  0  0  0  0
  130.2532  145.7837  140.5585 Cl  0  0  0  0  0  0  0  0  0  0  0  0
  129.0720  143.9022  142.1886 C   0  0  0  0  0  0  0  0  0  0  0  0
  128.8781  142.6427  142.7063 C   0  0  0  0  0  0  0  0  0  0  0  0
  130.5715  132.1908  139.4842 C   0  0  0  0  0  0  0  0  0  0  0  0
  130.9159  131.0213  139.0463 O   0  0  0  0  0  0  0  0  0  0  0  0
  130.0120  132.1543  140.7481 O   0  0  0  0  0  0  0  0  0  0  0  0
  129.4756  130.9761  141.3147 C   0  0  0  0  0  0  0  0  0  0  0  0
  134.8008  134.7750  136.7784 H   0  0  0  0  0  0  0  0  0  0  0  0
  133.5987  133.7504  135.8927 H   0  0  0  0  0  0  0  0  0  0  0  0
  133.2310  135.4634  136.3303 H   0  0  0  0  0  0  0  0  0  0  0  0
  132.6763  135.0604  138.4366 H   0  0  0  0  0  0  0  0  0  0  0  0
  133.8630  133.7436  138.7044 H   0  0  0  0  0  0  0  0  0  0  0  0
  132.3060  132.1444  137.6916 H   0  0  0  0  0  0  0  0  0  0  0  0
  131.0544  134.5680  136.2175 H   0  0  0  0  0  0  0  0  0  0  0  0
  130.7101  132.8100  135.9648 H   0  0  0  0  0  0  0  0  0  0  0  0
  132.2939  133.4546  135.5629 H   0  0  0  0  0  0  0  0  0  0  0  0
  129.8956  133.4296  137.9085 H   0  0  0  0  0  0  0  0  0  0  0  0
  131.4080  134.7678  140.1510 H   0  0  0  0  0  0  0  0  0  0  0  0
  128.8041  138.3510  139.0078 H   0  0  0  0  0  0  0  0  0  0  0  0
  130.5571  138.1419  138.6375 H   0  0  0  0  0  0  0  0  0  0  0  0
  131.2660  139.1390  140.5855 H   0  0  0  0  0  0  0  0  0  0  0  0
  129.9154  140.1660  139.8431 H   0  0  0  0  0  0  0  0  0  0  0  0
  129.5878  137.7391  143.2677 H   0  0  0  0  0  0  0  0  0  0  0  0
  128.1358  137.4773  142.2844 H   0  0  0  0  0  0  0  0  0  0  0  0
  129.5264  135.7122  141.8183 H   0  0  0  0  0  0  0  0  0  0  0  0
  130.9984  136.7532  141.7475 H   0  0  0  0  0  0  0  0  0  0  0  0
  127.2497  139.0899  141.1150 H   0  0  0  0  0  0  0  0  0  0  0  0
  128.1115  140.7420  140.9231 H   0  0  0  0  0  0  0  0  0  0  0  0
  127.7917  137.8610  144.5107 H   0  0  0  0  0  0  0  0  0  0  0  0
  126.4551  137.6639  146.5203 H   0  0  0  0  0  0  0  0  0  0  0  0
  125.1138  139.6259  147.3116 H   0  0  0  0  0  0  0  0  0  0  0  0
  126.5915  141.8795  143.9358 H   0  0  0  0  0  0  0  0  0  0  0  0
  130.1450  139.9116  143.5530 H   0  0  0  0  0  0  0  0  0  0  0  0
  131.2079  141.0892  140.8767 H   0  0  0  0  0  0  0  0  0  0  0  0
  131.5444  143.3139  139.9664 H   0  0  0  0  0  0  0  0  0  0  0  0
  128.4814  144.7502  142.5334 H   0  0  0  0  0  0  0  0  0  0  0  0
  128.1160  142.4778  143.4568 H   0  0  0  0  0  0  0  0  0  0  0  0
  130.0914  130.6250  142.1676 H   0  0  0  0  0  0  0  0  0  0  0  0
  128.4721  131.2645  141.7453 H   0  0  0  0  0  0  0  0  0  0  0  0
  129.3066  130.2060  140.5561 H   0  0  0  0  0  0  0  0  0  0  0  0
  1  2  1  0
  2  3  1  0
  3  4  1  0
  3  5  1  0
  5  6  1  0
  6  7  1  0
  7  8  2  0
  7  9  1  0
  9 10  1  0
 10 11  1  0
 11 12  1  0
 12 13  1  0
 13 14  1  0
 12 15  1  0
 15 16  1  0
 16 17  1  0
 17 18  2  0
 18 19  1  0
 19 20  2  0
 20 21  1  0
 21 22  1  0
 21 23  2  0
 16 24  1  0
 24 25  1  0
 25 26  2  0
 26 27  1  0
 27 28  2  0
 28 29  1  0
 28 30  1  0
 30 31  2  0
  5 32  1  0
 32 33  2  0
 32 34  1  0
 34 35  1  0
 14  9  1  0
 23 17  1  0
 31 25  1  0
 24 12  1  0
  1 36  1  0
  1 37  1  0
  1 38  1  0
  2 39  1  0
  2 40  1  0
  3 41  1  6
  4 42  1  0
  4 43  1  0
  4 44  1  0
  5 45  1  6
  6 46  1  0
 10 47  1  0
 10 48  1  0
 11 49  1  0
 11 50  1  0
 13 51  1  0
 13 52  1  0
 14 53  1  0
 14 54  1  0
 15 55  1  0
 15 56  1  0
 18 57  1  0
 19 58  1  0
 20 59  1  0
 23 60  1  0
 24 61  1  1
 26 62  1  0
 27 63  1  0
 30 64  1  0
 31 65  1  0
 35 66  1  0
 35 67  1  0
 35 68  1  0
M  END
>  <docking_score>  (2) 
-7.2640000000000002

$$$$

     RDKit          3D

 68 71  0  0  0  0  0  0  0  0999 V2000
  133.4727  129.3656  146.2938 C   0  0  0  0  0  0  0  0  0  0  0  0
  134.7459  130.1901  146.2647 C   0  0  0  0  0  0  0  0  0  0  0  0
  135.0601  130.4826  144.8190 C   0  0  2  0  0  0  0  0  0  0  0  0
  134.0055  129.7601  144.0092 C   0  0  0  0  0  0  0  0  0  0  0  0
  136.4135  130.0723  144.3635 C   0  0  2  0  0  0  0  0  0  0  0  0
  137.1545  131.0109  143.5817 N   0  0  0  0  0  0  0  0  0  0  0  0
  138.5295  131.0713  143.3160 C   0  0  0  0  0  0  0  0  0  0  0  0
  139.2896  130.2044  143.8323 O   0  0  0  0  0  0  0  0  0  0  0  0
  139.0866  132.0988  142.4695 N   0  0  0  0  0  0  0  0  0  0  0  0
  140.3502  132.6581  142.7962 C   0  0  0  0  0  0  0  0  0  0  0  0
  140.6311  133.9547  142.0518 C   0  0  0  0  0  0  0  0  0  0  0  0
  140.4935  133.7173  140.6093 C   0  0  0  0  0  0  0  0  0  0  0  0
  139.2722  132.9405  140.1884 C   0  0  0  0  0  0  0  0  0  0  0  0
  138.3716  132.5417  141.3177 C   0  0  0  0  0  0  0  0  0  0  0  0
  141.7283  133.0728  139.9439 C   0  0  0  0  0  0  0  0  0  0  0  0
  141.2238  133.6985  138.7380 N   0  0  0  0  0  0  0  0  0  0  0  0
  141.1094  133.4742  137.3540 C   0  0  0  0  0  0  0  0  0  0  0  0
  139.9134  133.0866  136.8055 C   0  0  0  0  0  0  0  0  0  0  0  0
  139.7201  132.8474  135.4611 C   0  0  0  0  0  0  0  0  0  0  0  0
  140.7933  133.0063  134.6101 C   0  0  0  0  0  0  0  0  0  0  0  0
  142.0147  133.3992  135.1487 C   0  0  0  0  0  0  0  0  0  0  0  0
  143.0826  133.5574  134.3022 F   0  0  0  0  0  0  0  0  0  0  0  0
  142.1747  133.6293  136.4902 C   0  0  0  0  0  0  0  0  0  0  0  0
  140.8171  134.8157  139.6281 C   0  0  2  0  0  0  0  0  0  0  0  0
  142.0275  135.6214  139.9022 C   0  0  0  0  0  0  0  0  0  0  0  0
  142.3916  136.6163  138.9884 C   0  0  0  0  0  0  0  0  0  0  0  0
  143.4696  137.4475  139.1346 C   0  0  0  0  0  0  0  0  0  0  0  0
  144.2534  137.2970  140.2587 C   0  0  0  0  0  0  0  0  0  0  0  0
  145.6261  138.3467  140.4555 Cl  0  0  0  0  0  0  0  0  0  0  0  0
  143.9041  136.3176  141.1696 C   0  0  0  0  0  0  0  0  0  0  0  0
  142.8185  135.4875  141.0139 C   0  0  0  0  0  0  0  0  0  0  0  0
  136.4523  128.7109  143.8563 C   0  0  0  0  0  0  0  0  0  0  0  0
  136.4789  128.4958  142.5792 O   0  0  0  0  0  0  0  0  0  0  0  0
  136.4668  127.5474  144.6034 O   0  0  0  0  0  0  0  0  0  0  0  0
  137.0494  127.4695  145.8885 C   0  0  0  0  0  0  0  0  0  0  0  0
  132.8129  129.6851  147.1526 H   0  0  0  0  0  0  0  0  0  0  0  0
  132.9008  129.4238  145.3628 H   0  0  0  0  0  0  0  0  0  0  0  0
  133.7123  128.2971  146.5174 H   0  0  0  0  0  0  0  0  0  0  0  0
  135.5676  129.4454  146.5903 H   0  0  0  0  0  0  0  0  0  0  0  0
  134.7516  130.9965  146.9677 H   0  0  0  0  0  0  0  0  0  0  0  0
  134.8867  131.5934  144.6644 H   0  0  0  0  0  0  0  0  0  0  0  0
  133.0558  129.6058  144.5432 H   0  0  0  0  0  0  0  0  0  0  0  0
  134.3979  128.7393  143.6943 H   0  0  0  0  0  0  0  0  0  0  0  0
  133.7836  130.2492  143.0397 H   0  0  0  0  0  0  0  0  0  0  0  0
  136.9948  130.0739  145.3802 H   0  0  0  0  0  0  0  0  0  0  0  0
  136.5833  131.7989  143.1192 H   0  0  0  0  0  0  0  0  0  0  0  0
  141.1772  131.9601  142.6651 H   0  0  0  0  0  0  0  0  0  0  0  0
  140.3083  132.9692  143.8819 H   0  0  0  0  0  0  0  0  0  0  0  0
  139.9721  134.7292  142.4394 H   0  0  0  0  0  0  0  0  0  0  0  0
  141.7225  134.1461  142.2765 H   0  0  0  0  0  0  0  0  0  0  0  0
  138.6376  133.5445  139.4752 H   0  0  0  0  0  0  0  0  0  0  0  0
  139.5275  132.0185  139.6286 H   0  0  0  0  0  0  0  0  0  0  0  0
  137.6593  131.7810  140.9400 H   0  0  0  0  0  0  0  0  0  0  0  0
  137.7834  133.4538  141.6047 H   0  0  0  0  0  0  0  0  0  0  0  0
  141.6771  131.9884  139.9909 H   0  0  0  0  0  0  0  0  0  0  0  0
  142.6220  133.5584  140.3798 H   0  0  0  0  0  0  0  0  0  0  0  0
  139.0459  132.9547  137.4693 H   0  0  0  0  0  0  0  0  0  0  0  0
  138.7452  132.5440  135.1018 H   0  0  0  0  0  0  0  0  0  0  0  0
  140.6835  132.8275  133.5408 H   0  0  0  0  0  0  0  0  0  0  0  0
  143.1272  133.9376  136.9253 H   0  0  0  0  0  0  0  0  0  0  0  0
  139.9481  135.3716  139.2383 H   0  0  0  0  0  0  0  0  0  0  0  0
  141.7687  136.7363  138.0938 H   0  0  0  0  0  0  0  0  0  0  0  0
  143.6853  138.1989  138.3749 H   0  0  0  0  0  0  0  0  0  0  0  0
  144.5539  136.2381  142.0404 H   0  0  0  0  0  0  0  0  0  0  0  0
  142.5874  134.7512  141.7726 H   0  0  0  0  0  0  0  0  0  0  0  0
  136.3051  127.6905  146.6803 H   0  0  0  0  0  0  0  0  0  0  0  0
  137.3522  126.3906  146.0300 H   0  0  0  0  0  0  0  0  0  0  0  0
  137.9522  128.0836  145.9586 H   0  0  0  0  0  0  0  0  0  0  0  0
  1  2  1  0
  2  3  1  0
  3  4  1  0
  3  5  1  0
  5  6  1  0
  6  7  1  0
  7  8  2  0
  7  9  1  0
  9 10  1  0
 10 11  1  0
 11 12  1  0
 12 13  1  0
 13 14  1  0
 12 15  1  0
 15 16  1  0
 16 17  1  0
 17 18  2  0
 18 19  1  0
 19 20  2  0
 20 21  1  0
 21 22  1  0
 21 23  2  0
 16 24  1  0
 24 25  1  0
 25 26  2  0
 26 27  1  0
 27 28  2  0
 28 29  1  0
 28 30  1  0
 30 31  2  0
  5 32  1  0
 32 33  2  0
 32 34  1  0
 34 35  1  0
 14  9  1  0
 23 17  1  0
 31 25  1  0
 24 12  1  0
  1 36  1  0
  1 37  1  0
  1 38  1  0
  2 39  1  0
  2 40  1  0
  3 41  1  1
  4 42  1  0
  4 43  1  0
  4 44  1  0
  5 45  1  1
  6 46  1  0
 10 47  1  0
 10 48  1  0
 11 49  1  0
 11 50  1  0
 13 51  1  0
 13 52  1  0
 14 53  1  0
 14 54  1  0
 15 55  1  0
 15 56  1  0
 18 57  1  0
 19 58  1  0
 20 59  1  0
 23 60  1  0
 24 61  1  6
 26 62  1  0
 27 63  1  0
 30 64  1  0
 31 65  1  0
 35 66  1  0
 35 67  1  0
 35 68  1  0
M  END
>  <docking_score>  (3) 
-7.077

$$$$
