
     RDKit          3D

 73 75  0  0  0  0  0  0  0  0999 V2000
  125.3992  125.6325  142.5930 C   0  0  0  0  0  0  0  0  0  0  0  0
  126.6664  125.0999  143.1483 C   0  0  0  0  0  0  0  0  0  0  0  0
  126.7612  125.3479  144.6586 C   0  0  0  0  0  0  0  0  0  0  0  0
  127.9287  125.3796  142.4464 C   0  0  0  0  0  0  0  0  0  0  0  0
  128.6064  126.6637  142.5681 C   0  0  0  0  0  0  0  0  0  0  0  0
  129.2182  127.3751  141.4517 C   0  0  0  0  0  0  0  0  0  0  0  0
  130.6241  127.4451  141.3138 N   0  0  0  0  0  0  0  0  0  0  0  0
  131.3603  126.7832  140.3397 C   0  0  0  0  0  0  0  0  0  0  0  0
  131.7952  127.3196  139.1501 C   0  0  0  0  0  0  0  0  0  0  0  0
  132.5044  126.5976  138.2227 C   0  0  0  0  0  0  0  0  0  0  0  0
  132.8010  125.2913  138.4735 C   0  0  0  0  0  0  0  0  0  0  0  0
  132.3952  124.6817  139.6483 C   0  0  0  0  0  0  0  0  0  0  0  0
  132.7651  122.9943  139.9989 Cl  0  0  0  0  0  0  0  0  0  0  0  0
  131.6941  125.4301  140.5410 C   0  0  0  0  0  0  0  0  0  0  0  0
  131.5528  128.4752  142.3884 S   0  0  0  0  0  0  0  0  0  0  0  0
  131.9334  127.7772  143.6376 O   0  0  0  0  0  0  0  0  0  0  0  0
  132.8166  128.9575  141.7293 O   0  0  0  0  0  0  0  0  0  0  0  0
  130.5862  129.9300  142.7001 C   0  0  0  0  0  0  0  0  0  0  0  0
  129.9500  130.1625  143.8882 C   0  0  0  0  0  0  0  0  0  0  0  0
  129.1806  131.2838  144.1161 C   0  0  0  0  0  0  0  0  0  0  0  0
  129.0478  132.2218  143.0784 C   0  0  0  0  0  0  0  0  0  0  0  0
  129.6662  132.0317  141.8648 C   0  0  0  0  0  0  0  0  0  0  0  0
  129.5209  132.9494  140.8119 N   0  0  0  0  0  0  0  0  0  0  0  0
  130.3472  134.0321  140.4769 C   0  0  0  0  0  0  0  0  0  0  0  0
  131.3695  134.2623  141.1440 O   0  0  0  0  0  0  0  0  0  0  0  0
  130.0260  134.9417  139.3168 C   0  0  0  0  0  0  0  0  0  0  0  0
  130.0859  134.2882  138.0622 N   0  0  0  0  0  0  0  0  0  0  0  0
  128.8230  134.0087  137.3818 C   0  0  0  0  0  0  0  0  0  0  0  0
  131.3341  133.9205  137.4920 C   0  0  0  0  0  0  0  0  0  0  0  0
  132.2340  134.7840  137.2561 O   0  0  0  0  0  0  0  0  0  0  0  0
  131.6569  132.6131  137.1542 O   0  0  0  0  0  0  0  0  0  0  0  0
  132.7697  132.3391  136.3509 C   0  0  0  0  0  0  0  0  0  0  0  0
  132.7252  130.9498  135.8308 C   0  0  0  0  0  0  0  0  0  0  0  0
  131.5931  130.3473  135.3200 C   0  0  0  0  0  0  0  0  0  0  0  0
  131.5838  129.0490  134.8501 C   0  0  0  0  0  0  0  0  0  0  0  0
  132.7608  128.3379  134.8981 C   0  0  0  0  0  0  0  0  0  0  0  0
  133.9297  128.8847  135.3970 C   0  0  0  0  0  0  0  0  0  0  0  0
  133.8841  130.1779  135.8523 C   0  0  0  0  0  0  0  0  0  0  0  0
  130.4255  130.8793  141.7120 C   0  0  0  0  0  0  0  0  0  0  0  0
  125.6726  126.4155  141.8194 H   0  0  0  0  0  0  0  0  0  0  0  0
  124.8021  126.1090  143.3701 H   0  0  0  0  0  0  0  0  0  0  0  0
  124.8255  124.8166  142.0946 H   0  0  0  0  0  0  0  0  0  0  0  0
  126.5536  123.9558  143.1108 H   0  0  0  0  0  0  0  0  0  0  0  0
  127.5768  124.6714  145.0071 H   0  0  0  0  0  0  0  0  0  0  0  0
  125.8174  125.2359  145.1811 H   0  0  0  0  0  0  0  0  0  0  0  0
  127.1305  126.3764  144.7943 H   0  0  0  0  0  0  0  0  0  0  0  0
  127.7942  125.0308  141.3792 H   0  0  0  0  0  0  0  0  0  0  0  0
  128.6693  124.5825  142.8307 H   0  0  0  0  0  0  0  0  0  0  0  0
  129.4163  126.5878  143.3824 H   0  0  0  0  0  0  0  0  0  0  0  0
  127.8839  127.3808  143.1084 H   0  0  0  0  0  0  0  0  0  0  0  0
  128.8692  128.4762  141.4552 H   0  0  0  0  0  0  0  0  0  0  0  0
  128.7198  127.0243  140.4853 H   0  0  0  0  0  0  0  0  0  0  0  0
  131.5369  128.3712  138.9587 H   0  0  0  0  0  0  0  0  0  0  0  0
  132.8190  127.0616  137.3169 H   0  0  0  0  0  0  0  0  0  0  0  0
  133.3585  124.6711  137.7808 H   0  0  0  0  0  0  0  0  0  0  0  0
  131.3791  124.9527  141.4615 H   0  0  0  0  0  0  0  0  0  0  0  0
  130.0535  129.4391  144.6909 H   0  0  0  0  0  0  0  0  0  0  0  0
  128.6805  131.4607  145.0668 H   0  0  0  0  0  0  0  0  0  0  0  0
  128.4266  133.0645  143.3242 H   0  0  0  0  0  0  0  0  0  0  0  0
  128.6718  132.8109  140.1751 H   0  0  0  0  0  0  0  0  0  0  0  0
  130.7619  135.7743  139.3779 H   0  0  0  0  0  0  0  0  0  0  0  0
  129.0311  135.4255  139.4673 H   0  0  0  0  0  0  0  0  0  0  0  0
  128.0028  134.2379  138.0605 H   0  0  0  0  0  0  0  0  0  0  0  0
  128.7210  134.6223  136.4641 H   0  0  0  0  0  0  0  0  0  0  0  0
  128.7506  132.9055  137.1509 H   0  0  0  0  0  0  0  0  0  0  0  0
  133.6715  132.3688  137.0337 H   0  0  0  0  0  0  0  0  0  0  0  0
  132.9387  133.0880  135.5544 H   0  0  0  0  0  0  0  0  0  0  0  0
  130.6944  130.9666  135.3121 H   0  0  0  0  0  0  0  0  0  0  0  0
  130.6690  128.5994  134.4483 H   0  0  0  0  0  0  0  0  0  0  0  0
  132.8334  127.3133  134.5494 H   0  0  0  0  0  0  0  0  0  0  0  0
  134.8670  128.3122  135.4300 H   0  0  0  0  0  0  0  0  0  0  0  0
  134.8017  130.6286  136.2560 H   0  0  0  0  0  0  0  0  0  0  0  0
  130.9098  130.7349  140.7659 H   0  0  0  0  0  0  0  0  0  0  0  0
  1  2  1  0
  2  3  1  0
  2  4  1  0
  4  5  1  0
  5  6  1  0
  6  7  1  0
  7  8  1  0
  8  9  2  0
  9 10  1  0
 10 11  2  0
 11 12  1  0
 12 13  1  0
 12 14  2  0
  7 15  1  0
 15 16  2  0
 15 17  2  0
 15 18  1  0
 18 19  2  0
 19 20  1  0
 20 21  2  0
 21 22  1  0
 22 23  1  0
 23 24  1  0
 24 25  2  0
 24 26  1  0
 26 27  1  0
 27 28  1  0
 27 29  1  0
 29 30  2  0
 29 31  1  0
 31 32  1  0
 32 33  1  0
 33 34  2  0
 34 35  1  0
 35 36  2  0
 36 37  1  0
 37 38  2  0
 22 39  2  0
 14  8  1  0
 39 18  1  0
 38 33  1  0
  1 40  1  0
  1 41  1  0
  1 42  1  0
  2 43  1  0
  3 44  1  0
  3 45  1  0
  3 46  1  0
  4 47  1  0
  4 48  1  0
  5 49  1  0
  5 50  1  0
  6 51  1  0
  6 52  1  0
  9 53  1  0
 10 54  1  0
 11 55  1  0
 14 56  1  0
 19 57  1  0
 20 58  1  0
 21 59  1  0
 23 60  1  0
 26 61  1  0
 26 62  1  0
 28 63  1  0
 28 64  1  0
 28 65  1  0
 32 66  1  0
 32 67  1  0
 34 68  1  0
 35 69  1  0
 36 70  1  0
 37 71  1  0
 38 72  1  0
 39 73  1  0
M  END
>  <docking_score>  (1) 
-6.5670000000000002

$$$$

     RDKit          3D

 73 75  0  0  0  0  0  0  0  0999 V2000
  137.4035  135.7155  142.2959 C   0  0  0  0  0  0  0  0  0  0  0  0
  136.6688  134.9998  141.2255 C   0  0  0  0  0  0  0  0  0  0  0  0
  135.2068  135.4565  141.1512 C   0  0  0  0  0  0  0  0  0  0  0  0
  136.8146  133.5405  141.1101 C   0  0  0  0  0  0  0  0  0  0  0  0
  136.1095  132.7770  140.0888 C   0  0  0  0  0  0  0  0  0  0  0  0
  136.7468  131.8054  139.2076 C   0  0  0  0  0  0  0  0  0  0  0  0
  136.3637  131.6895  137.8510 N   0  0  0  0  0  0  0  0  0  0  0  0
  137.1375  132.0922  136.7703 C   0  0  0  0  0  0  0  0  0  0  0  0
  136.6941  132.7968  135.6754 C   0  0  0  0  0  0  0  0  0  0  0  0
  137.5147  133.1449  134.6315 C   0  0  0  0  0  0  0  0  0  0  0  0
  138.8292  132.7866  134.6632 C   0  0  0  0  0  0  0  0  0  0  0  0
  139.3478  132.0747  135.7312 C   0  0  0  0  0  0  0  0  0  0  0  0
  141.0437  131.5986  135.7986 Cl  0  0  0  0  0  0  0  0  0  0  0  0
  138.5027  131.7482  136.7450 C   0  0  0  0  0  0  0  0  0  0  0  0
  134.8335  130.9354  137.4413 S   0  0  0  0  0  0  0  0  0  0  0  0
  134.9657  129.9842  136.3143 O   0  0  0  0  0  0  0  0  0  0  0  0
  134.2622  130.1824  138.6122 O   0  0  0  0  0  0  0  0  0  0  0  0
  133.6757  132.2336  137.0917 C   0  0  0  0  0  0  0  0  0  0  0  0
  133.0090  132.3382  135.9021 C   0  0  0  0  0  0  0  0  0  0  0  0
  132.1283  133.3630  135.6276 C   0  0  0  0  0  0  0  0  0  0  0  0
  131.9133  134.3383  136.6160 C   0  0  0  0  0  0  0  0  0  0  0  0
  132.5617  134.2779  137.8272 C   0  0  0  0  0  0  0  0  0  0  0  0
  132.3740  135.2599  138.8133 N   0  0  0  0  0  0  0  0  0  0  0  0
  131.6927  135.1520  140.0345 C   0  0  0  0  0  0  0  0  0  0  0  0
  131.1750  134.0717  140.3631 O   0  0  0  0  0  0  0  0  0  0  0  0
  131.5637  136.3259  140.9735 C   0  0  0  0  0  0  0  0  0  0  0  0
  130.2520  136.8563  141.0268 N   0  0  0  0  0  0  0  0  0  0  0  0
  129.4155  136.4844  142.1661 C   0  0  0  0  0  0  0  0  0  0  0  0
  129.7738  137.7190  140.0044 C   0  0  0  0  0  0  0  0  0  0  0  0
  129.1950  137.2631  138.9708 O   0  0  0  0  0  0  0  0  0  0  0  0
  129.9028  139.1004  140.0569 O   0  0  0  0  0  0  0  0  0  0  0  0
  129.0096  139.8711  140.8098 C   0  0  0  0  0  0  0  0  0  0  0  0
  129.4872  141.2703  140.9388 C   0  0  0  0  0  0  0  0  0  0  0  0
  129.9328  141.8337  142.1177 C   0  0  0  0  0  0  0  0  0  0  0  0
  130.3643  143.1423  142.2053 C   0  0  0  0  0  0  0  0  0  0  0  0
  130.3450  143.9052  141.0603 C   0  0  0  0  0  0  0  0  0  0  0  0
  129.9113  143.3995  139.8477 C   0  0  0  0  0  0  0  0  0  0  0  0
  129.4920  142.0938  139.8158 C   0  0  0  0  0  0  0  0  0  0  0  0
  133.4317  133.2150  138.0301 C   0  0  0  0  0  0  0  0  0  0  0  0
  137.6097  134.9666  143.1224 H   0  0  0  0  0  0  0  0  0  0  0  0
  136.8025  136.5262  142.7071 H   0  0  0  0  0  0  0  0  0  0  0  0
  138.3746  136.0990  141.9048 H   0  0  0  0  0  0  0  0  0  0  0  0
  137.0898  135.4185  140.2404 H   0  0  0  0  0  0  0  0  0  0  0  0
  135.1704  136.1525  140.2803 H   0  0  0  0  0  0  0  0  0  0  0  0
  134.8276  135.8652  142.0815 H   0  0  0  0  0  0  0  0  0  0  0  0
  134.6075  134.5760  140.8715 H   0  0  0  0  0  0  0  0  0  0  0  0
  136.7099  133.1174  142.1535 H   0  0  0  0  0  0  0  0  0  0  0  0
  137.9406  133.3642  140.9295 H   0  0  0  0  0  0  0  0  0  0  0  0
  135.5350  133.5023  139.4042 H   0  0  0  0  0  0  0  0  0  0  0  0
  135.2090  132.2723  140.6012 H   0  0  0  0  0  0  0  0  0  0  0  0
  136.6143  130.7429  139.6410 H   0  0  0  0  0  0  0  0  0  0  0  0
  137.8793  131.9111  139.3151 H   0  0  0  0  0  0  0  0  0  0  0  0
  135.6283  133.0673  135.6605 H   0  0  0  0  0  0  0  0  0  0  0  0
  137.1209  133.6925  133.8070 H   0  0  0  0  0  0  0  0  0  0  0  0
  139.5256  133.0337  133.8699 H   0  0  0  0  0  0  0  0  0  0  0  0
  138.9102  131.1931  137.5818 H   0  0  0  0  0  0  0  0  0  0  0  0
  133.1735  131.5842  135.1387 H   0  0  0  0  0  0  0  0  0  0  0  0
  131.6005  133.4354  134.6781 H   0  0  0  0  0  0  0  0  0  0  0  0
  131.2224  135.1106  136.3286 H   0  0  0  0  0  0  0  0  0  0  0  0
  132.8059  136.2193  138.6163 H   0  0  0  0  0  0  0  0  0  0  0  0
  132.2941  137.0818  140.6081 H   0  0  0  0  0  0  0  0  0  0  0  0
  131.9231  136.0479  141.9934 H   0  0  0  0  0  0  0  0  0  0  0  0
  128.9659  135.5128  141.9665 H   0  0  0  0  0  0  0  0  0  0  0  0
  130.0143  136.4261  143.0973 H   0  0  0  0  0  0  0  0  0  0  0  0
  128.5632  137.2182  142.2687 H   0  0  0  0  0  0  0  0  0  0  0  0
  129.0351  139.4534  141.8611 H   0  0  0  0  0  0  0  0  0  0  0  0
  127.9623  139.8080  140.4590 H   0  0  0  0  0  0  0  0  0  0  0  0
  129.9208  141.1742  142.9873 H   0  0  0  0  0  0  0  0  0  0  0  0
  130.7145  143.5601  143.1558 H   0  0  0  0  0  0  0  0  0  0  0  0
  130.6669  144.9411  141.0488 H   0  0  0  0  0  0  0  0  0  0  0  0
  129.9011  144.0134  138.9364 H   0  0  0  0  0  0  0  0  0  0  0  0
  129.1401  141.6751  138.8624 H   0  0  0  0  0  0  0  0  0  0  0  0
  133.9336  133.1680  138.9769 H   0  0  0  0  0  0  0  0  0  0  0  0
  1  2  1  0
  2  3  1  0
  2  4  1  0
  4  5  1  0
  5  6  1  0
  6  7  1  0
  7  8  1  0
  8  9  2  0
  9 10  1  0
 10 11  2  0
 11 12  1  0
 12 13  1  0
 12 14  2  0
  7 15  1  0
 15 16  2  0
 15 17  2  0
 15 18  1  0
 18 19  2  0
 19 20  1  0
 20 21  2  0
 21 22  1  0
 22 23  1  0
 23 24  1  0
 24 25  2  0
 24 26  1  0
 26 27  1  0
 27 28  1  0
 27 29  1  0
 29 30  2  0
 29 31  1  0
 31 32  1  0
 32 33  1  0
 33 34  2  0
 34 35  1  0
 35 36  2  0
 36 37  1  0
 37 38  2  0
 22 39  2  0
 14  8  1  0
 39 18  1  0
 38 33  1  0
  1 40  1  0
  1 41  1  0
  1 42  1  0
  2 43  1  0
  3 44  1  0
  3 45  1  0
  3 46  1  0
  4 47  1  0
  4 48  1  0
  5 49  1  0
  5 50  1  0
  6 51  1  0
  6 52  1  0
  9 53  1  0
 10 54  1  0
 11 55  1  0
 14 56  1  0
 19 57  1  0
 20 58  1  0
 21 59  1  0
 23 60  1  0
 26 61  1  0
 26 62  1  0
 28 63  1  0
 28 64  1  0
 28 65  1  0
 32 66  1  0
 32 67  1  0
 34 68  1  0
 35 69  1  0
 36 70  1  0
 37 71  1  0
 38 72  1  0
 39 73  1  0
M  END
>  <docking_score>  (2) 
-6.5430000000000001

$$$$

     RDKit          3D

 73 75  0  0  0  0  0  0  0  0999 V2000
  130.2660  141.2084  139.6885 C   0  0  0  0  0  0  0  0  0  0  0  0
  129.8290  139.8237  139.9876 C   0  0  0  0  0  0  0  0  0  0  0  0
  128.5634  139.8130  140.8534 C   0  0  0  0  0  0  0  0  0  0  0  0
  130.8277  138.8378  140.4292 C   0  0  0  0  0  0  0  0  0  0  0  0
  131.0648  137.6029  139.6930 C   0  0  0  0  0  0  0  0  0  0  0  0
  130.1603  136.4591  139.7006 C   0  0  0  0  0  0  0  0  0  0  0  0
  130.1273  135.5623  140.7939 N   0  0  0  0  0  0  0  0  0  0  0  0
  130.3397  135.9182  142.1195 C   0  0  0  0  0  0  0  0  0  0  0  0
  131.4993  135.7245  142.8335 C   0  0  0  0  0  0  0  0  0  0  0  0
  131.6315  136.0852  144.1513 C   0  0  0  0  0  0  0  0  0  0  0  0
  130.5796  136.6626  144.7976 C   0  0  0  0  0  0  0  0  0  0  0  0
  129.3797  136.8879  144.1451 C   0  0  0  0  0  0  0  0  0  0  0  0
  128.0033  137.6331  144.9560 Cl  0  0  0  0  0  0  0  0  0  0  0  0
  129.2882  136.5157  142.8407 C   0  0  0  0  0  0  0  0  0  0  0  0
  129.7360  133.8738  140.5216 S   0  0  0  0  0  0  0  0  0  0  0  0
  129.0189  133.2762  141.6710 O   0  0  0  0  0  0  0  0  0  0  0  0
  128.8718  133.7009  139.3019 O   0  0  0  0  0  0  0  0  0  0  0  0
  131.2525  133.0260  140.1621 C   0  0  0  0  0  0  0  0  0  0  0  0
  132.4831  133.6056  140.3048 C   0  0  0  0  0  0  0  0  0  0  0  0
  133.6570  132.9493  140.0010 C   0  0  0  0  0  0  0  0  0  0  0  0
  133.5776  131.6303  139.5233 C   0  0  0  0  0  0  0  0  0  0  0  0
  132.3636  131.0050  139.3606 C   0  0  0  0  0  0  0  0  0  0  0  0
  132.2699  129.6961  138.8606 N   0  0  0  0  0  0  0  0  0  0  0  0
  132.0694  128.5028  139.5699 C   0  0  0  0  0  0  0  0  0  0  0  0
  131.9316  128.5300  140.8041 O   0  0  0  0  0  0  0  0  0  0  0  0
  132.0193  127.1670  138.8703 C   0  0  0  0  0  0  0  0  0  0  0  0
  133.2916  126.7083  138.4515 N   0  0  0  0  0  0  0  0  0  0  0  0
  134.1874  126.1673  139.4717 C   0  0  0  0  0  0  0  0  0  0  0  0
  133.6760  126.7755  137.0855 C   0  0  0  0  0  0  0  0  0  0  0  0
  133.5950  125.7628  136.3245 O   0  0  0  0  0  0  0  0  0  0  0  0
  134.1623  127.9322  136.4913 O   0  0  0  0  0  0  0  0  0  0  0  0
  133.4904  128.5142  135.4102 C   0  0  0  0  0  0  0  0  0  0  0  0
  133.3363  129.9778  135.6011 C   0  0  0  0  0  0  0  0  0  0  0  0
  134.3668  130.8293  135.9455 C   0  0  0  0  0  0  0  0  0  0  0  0
  134.1882  132.1869  136.1226 C   0  0  0  0  0  0  0  0  0  0  0  0
  132.9237  132.6992  135.9435 C   0  0  0  0  0  0  0  0  0  0  0  0
  131.8492  131.8994  135.5970 C   0  0  0  0  0  0  0  0  0  0  0  0
  132.0809  130.5571  135.4346 C   0  0  0  0  0  0  0  0  0  0  0  0
  131.2261  131.7301  139.6896 C   0  0  0  0  0  0  0  0  0  0  0  0
  130.9959  141.5147  140.5008 H   0  0  0  0  0  0  0  0  0  0  0  0
  129.4214  141.8967  139.7061 H   0  0  0  0  0  0  0  0  0  0  0  0
  130.7865  141.2424  138.7031 H   0  0  0  0  0  0  0  0  0  0  0  0
  129.4279  139.4132  138.9907 H   0  0  0  0  0  0  0  0  0  0  0  0
  127.7421  139.5329  140.1527 H   0  0  0  0  0  0  0  0  0  0  0  0
  128.4023  140.7328  141.4052 H   0  0  0  0  0  0  0  0  0  0  0  0
  128.6653  138.9777  141.5636 H   0  0  0  0  0  0  0  0  0  0  0  0
  130.6711  138.6878  141.5390 H   0  0  0  0  0  0  0  0  0  0  0  0
  131.8302  139.4091  140.4390 H   0  0  0  0  0  0  0  0  0  0  0  0
  132.1038  137.1919  139.9695 H   0  0  0  0  0  0  0  0  0  0  0  0
  131.2791  137.8940  138.5988 H   0  0  0  0  0  0  0  0  0  0  0  0
  130.3702  135.7922  138.7812 H   0  0  0  0  0  0  0  0  0  0  0  0
  129.1132  136.8269  139.4293 H   0  0  0  0  0  0  0  0  0  0  0  0
  132.3338  135.2464  142.3002 H   0  0  0  0  0  0  0  0  0  0  0  0
  132.5526  135.9140  144.6584 H   0  0  0  0  0  0  0  0  0  0  0  0
  130.6242  136.9698  145.8363 H   0  0  0  0  0  0  0  0  0  0  0  0
  128.3493  136.6948  142.3301 H   0  0  0  0  0  0  0  0  0  0  0  0
  132.5452  134.6240  140.6753 H   0  0  0  0  0  0  0  0  0  0  0  0
  134.6319  133.4191  140.1208 H   0  0  0  0  0  0  0  0  0  0  0  0
  134.5307  131.1859  139.2986 H   0  0  0  0  0  0  0  0  0  0  0  0
  132.3604  129.5854  137.7999 H   0  0  0  0  0  0  0  0  0  0  0  0
  131.3326  127.3084  138.0061 H   0  0  0  0  0  0  0  0  0  0  0  0
  131.5153  126.4092  139.5172 H   0  0  0  0  0  0  0  0  0  0  0  0
  134.0765  126.7559  140.3812 H   0  0  0  0  0  0  0  0  0  0  0  0
  133.9475  125.1073  139.6904 H   0  0  0  0  0  0  0  0  0  0  0  0
  135.2602  126.2877  139.1395 H   0  0  0  0  0  0  0  0  0  0  0  0
  132.4367  128.1023  135.4300 H   0  0  0  0  0  0  0  0  0  0  0  0
  133.9235  128.2552  134.4257 H   0  0  0  0  0  0  0  0  0  0  0  0
  135.3429  130.3578  136.0730 H   0  0  0  0  0  0  0  0  0  0  0  0
  135.0271  132.8373  136.3939 H   0  0  0  0  0  0  0  0  0  0  0  0
  132.7033  133.7543  136.0658 H   0  0  0  0  0  0  0  0  0  0  0  0
  130.8425  132.3153  135.4529 H   0  0  0  0  0  0  0  0  0  0  0  0
  131.2390  129.9047  135.1631 H   0  0  0  0  0  0  0  0  0  0  0  0
  130.2805  131.2392  139.5652 H   0  0  0  0  0  0  0  0  0  0  0  0
  1  2  1  0
  2  3  1  0
  2  4  1  0
  4  5  1  0
  5  6  1  0
  6  7  1  0
  7  8  1  0
  8  9  2  0
  9 10  1  0
 10 11  2  0
 11 12  1  0
 12 13  1  0
 12 14  2  0
  7 15  1  0
 15 16  2  0
 15 17  2  0
 15 18  1  0
 18 19  2  0
 19 20  1  0
 20 21  2  0
 21 22  1  0
 22 23  1  0
 23 24  1  0
 24 25  2  0
 24 26  1  0
 26 27  1  0
 27 28  1  0
 27 29  1  0
 29 30  2  0
 29 31  1  0
 31 32  1  0
 32 33  1  0
 33 34  2  0
 34 35  1  0
 35 36  2  0
 36 37  1  0
 37 38  2  0
 22 39  2  0
 14  8  1  0
 39 18  1  0
 38 33  1  0
  1 40  1  0
  1 41  1  0
  1 42  1  0
  2 43  1  0
  3 44  1  0
  3 45  1  0
  3 46  1  0
  4 47  1  0
  4 48  1  0
  5 49  1  0
  5 50  1  0
  6 51  1  0
  6 52  1  0
  9 53  1  0
 10 54  1  0
 11 55  1  0
 14 56  1  0
 19 57  1  0
 20 58  1  0
 21 59  1  0
 23 60  1  0
 26 61  1  0
 26 62  1  0
 28 63  1  0
 28 64  1  0
 28 65  1  0
 32 66  1  0
 32 67  1  0
 34 68  1  0
 35 69  1  0
 36 70  1  0
 37 71  1  0
 38 72  1  0
 39 73  1  0
M  END
>  <docking_score>  (3) 
-6.4690000000000003

$$$$
