
     RDKit          3D

 57 62  0  0  0  0  0  0  0  0999 V2000
  135.0687  128.4554  140.5939 O   0  0  0  0  0  0  0  0  0  0  0  0
  134.0980  128.0805  141.2668 C   0  0  0  0  0  0  0  0  0  0  0  0
  132.8171  128.5511  141.5875 N   0  0  0  0  0  0  0  0  0  0  0  0
  131.8133  129.3376  140.9385 C   0  0  0  0  0  0  0  0  0  0  0  0
  131.8529  129.5852  139.5834 C   0  0  0  0  0  0  0  0  0  0  0  0
  130.8986  130.3439  138.9303 C   0  0  0  0  0  0  0  0  0  0  0  0
  129.8679  130.8635  139.7067 C   0  0  0  0  0  0  0  0  0  0  0  0
  128.8960  131.6148  139.1463 F   0  0  0  0  0  0  0  0  0  0  0  0
  129.8328  130.6106  141.0728 C   0  0  0  0  0  0  0  0  0  0  0  0
  128.5003  131.2985  142.0081 Cl  0  0  0  0  0  0  0  0  0  0  0  0
  130.7857  129.8585  141.7010 C   0  0  0  0  0  0  0  0  0  0  0  0
  132.9581  127.8821  142.8705 C   0  0  2  0  0  0  0  0  0  0  0  0
  133.6769  128.7254  143.8274 C   0  0  0  0  0  0  0  0  0  0  0  0
  133.5970  128.4271  145.1709 C   0  0  0  0  0  0  0  0  0  0  0  0
  134.2471  129.1608  146.1435 C   0  0  0  0  0  0  0  0  0  0  0  0
  135.0045  130.2305  145.7707 C   0  0  0  0  0  0  0  0  0  0  0  0
  135.0785  130.5216  144.4257 C   0  0  0  0  0  0  0  0  0  0  0  0
  134.4350  129.7889  143.5045 N   0  0  0  0  0  0  0  0  0  0  0  0
  133.8003  126.8906  142.1051 C   0  0  0  0  0  0  0  0  0  0  0  0
  132.9481  125.8695  141.4250 C   0  0  0  0  0  0  0  0  0  0  0  0
  133.7544  125.0479  140.4662 C   0  0  0  0  0  0  0  0  0  0  0  0
  134.9573  124.5788  141.1121 N   0  0  0  0  0  0  0  0  0  0  0  0
  135.5298  123.3664  140.5897 C   0  0  0  0  0  0  0  0  0  0  0  0
  136.6641  122.7946  141.0677 N   0  0  0  0  0  0  0  0  0  0  0  0
  136.9492  121.6766  140.3821 C   0  0  0  0  0  0  0  0  0  0  0  0
  137.9529  120.7423  140.4512 C   0  0  0  0  0  0  0  0  0  0  0  0
  137.9908  119.6653  139.5919 C   0  0  0  0  0  0  0  0  0  0  0  0
  138.9953  118.7705  139.6934 F   0  0  0  0  0  0  0  0  0  0  0  0
  137.0077  119.4937  138.6251 C   0  0  0  0  0  0  0  0  0  0  0  0
  137.0661  118.3267  137.7148 C   0  0  0  0  0  0  0  0  0  0  0  0
  135.8530  118.2444  137.0379 F   0  0  0  0  0  0  0  0  0  0  0  0
  138.0697  118.4470  136.8108 F   0  0  0  0  0  0  0  0  0  0  0  0
  137.1953  117.1393  138.4503 F   0  0  0  0  0  0  0  0  0  0  0  0
  136.0203  120.4502  138.5885 C   0  0  0  0  0  0  0  0  0  0  0  0
  135.9647  121.5343  139.4388 C   0  0  0  0  0  0  0  0  0  0  0  0
  135.1043  122.5857  139.5870 N   0  0  0  0  0  0  0  0  0  0  0  0
  135.6317  125.1970  142.2054 C   0  0  0  0  0  0  0  0  0  0  0  0
  134.9417  126.3288  142.8650 C   0  0  0  0  0  0  0  0  0  0  0  0
  132.6730  129.1616  139.0061 H   0  0  0  0  0  0  0  0  0  0  0  0
  130.9020  130.5530  137.8788 H   0  0  0  0  0  0  0  0  0  0  0  0
  130.7655  129.6606  142.7546 H   0  0  0  0  0  0  0  0  0  0  0  0
  132.0199  127.4614  143.2711 H   0  0  0  0  0  0  0  0  0  0  0  0
  133.0047  127.5894  145.4785 H   0  0  0  0  0  0  0  0  0  0  0  0
  134.1335  128.8621  147.1726 H   0  0  0  0  0  0  0  0  0  0  0  0
  135.5272  130.8237  146.5180 H   0  0  0  0  0  0  0  0  0  0  0  0
  135.6925  131.3840  144.1469 H   0  0  0  0  0  0  0  0  0  0  0  0
  132.4457  125.1862  142.1391 H   0  0  0  0  0  0  0  0  0  0  0  0
  132.1395  126.4160  140.8882 H   0  0  0  0  0  0  0  0  0  0  0  0
  133.9407  125.5830  139.5198 H   0  0  0  0  0  0  0  0  0  0  0  0
  133.1248  124.1591  140.1961 H   0  0  0  0  0  0  0  0  0  0  0  0
  138.7573  120.8355  141.2002 H   0  0  0  0  0  0  0  0  0  0  0  0
  135.2435  120.3338  137.8428 H   0  0  0  0  0  0  0  0  0  0  0  0
  134.2617  122.7425  139.0095 H   0  0  0  0  0  0  0  0  0  0  0  0
  135.7976  124.3841  142.9755 H   0  0  0  0  0  0  0  0  0  0  0  0
  136.6756  125.4451  141.8739 H   0  0  0  0  0  0  0  0  0  0  0  0
  135.7098  127.1520  142.9646 H   0  0  0  0  0  0  0  0  0  0  0  0
  134.6753  126.0689  143.9277 H   0  0  0  0  0  0  0  0  0  0  0  0
  1  2  2  0
  2  3  1  0
  3  4  1  0
  4  5  2  0
  5  6  1  0
  6  7  2  0
  7  8  1  0
  7  9  1  0
  9 10  1  0
  9 11  2  0
  3 12  1  0
 12 13  1  0
 13 14  2  0
 14 15  1  0
 15 16  2  0
 16 17  1  0
 17 18  2  0
 12 19  1  0
 19 20  1  0
 20 21  1  0
 21 22  1  0
 22 23  1  0
 23 24  2  0
 24 25  1  0
 25 26  2  0
 26 27  1  0
 27 28  1  0
 27 29  2  0
 29 30  1  0
 30 31  1  0
 30 32  1  0
 30 33  1  0
 29 34  1  0
 34 35  2  0
 35 36  1  0
 22 37  1  0
 37 38  1  0
 19  2  1  0
 36 23  1  0
 11  4  1  0
 18 13  1  0
 38 19  1  0
 35 25  1  0
  5 39  1  0
  6 40  1  0
 11 41  1  0
 12 42  1  1
 14 43  1  0
 15 44  1  0
 16 45  1  0
 17 46  1  0
 20 47  1  0
 20 48  1  0
 21 49  1  0
 21 50  1  0
 26 51  1  0
 34 52  1  0
 36 53  1  0
 37 54  1  0
 37 55  1  0
 38 56  1  0
 38 57  1  0
M  END
>  <docking_score>  (1) 
-9.609

$$$$

     RDKit          3D

 57 62  0  0  0  0  0  0  0  0999 V2000
  128.3020  135.6144  139.3580 O   0  0  0  0  0  0  0  0  0  0  0  0
  129.4703  135.3613  139.6847 C   0  0  0  0  0  0  0  0  0  0  0  0
  130.4700  134.4460  139.3273 N   0  0  0  0  0  0  0  0  0  0  0  0
  130.8622  133.7581  138.1355 C   0  0  0  0  0  0  0  0  0  0  0  0
  131.8146  134.2737  137.2833 C   0  0  0  0  0  0  0  0  0  0  0  0
  132.2108  133.6326  136.1237 C   0  0  0  0  0  0  0  0  0  0  0  0
  131.6004  132.4159  135.8369 C   0  0  0  0  0  0  0  0  0  0  0  0
  131.9306  131.7260  134.7242 F   0  0  0  0  0  0  0  0  0  0  0  0
  130.6406  131.9005  136.6997 C   0  0  0  0  0  0  0  0  0  0  0  0
  129.8982  130.3519  136.2823 Cl  0  0  0  0  0  0  0  0  0  0  0  0
  130.2614  132.5492  137.8415 C   0  0  0  0  0  0  0  0  0  0  0  0
  130.9352  134.5085  140.7032 C   0  0  2  0  0  0  0  0  0  0  0  0
  130.1805  133.5883  141.5560 C   0  0  0  0  0  0  0  0  0  0  0  0
  130.6684  133.2894  142.8102 C   0  0  0  0  0  0  0  0  0  0  0  0
  130.0211  132.4396  143.6854 C   0  0  0  0  0  0  0  0  0  0  0  0
  128.8465  131.8642  143.3031 C   0  0  0  0  0  0  0  0  0  0  0  0
  128.3665  132.1684  142.0475 C   0  0  0  0  0  0  0  0  0  0  0  0
  129.0189  132.9986  141.2201 N   0  0  0  0  0  0  0  0  0  0  0  0
  130.4320  135.9310  140.6634 C   0  0  0  0  0  0  0  0  0  0  0  0
  131.4444  136.8451  140.0546 C   0  0  0  0  0  0  0  0  0  0  0  0
  130.8548  138.1949  139.7807 C   0  0  0  0  0  0  0  0  0  0  0  0
  130.1541  138.6714  140.9496 N   0  0  0  0  0  0  0  0  0  0  0  0
  130.0380  140.0992  141.0850 C   0  0  0  0  0  0  0  0  0  0  0  0
  129.2791  140.7135  142.0277 N   0  0  0  0  0  0  0  0  0  0  0  0
  129.3698  142.0470  141.9054 C   0  0  0  0  0  0  0  0  0  0  0  0
  128.8221  143.1087  142.5820 C   0  0  0  0  0  0  0  0  0  0  0  0
  129.1024  144.4097  142.2230 C   0  0  0  0  0  0  0  0  0  0  0  0
  128.5424  145.4239  142.9141 F   0  0  0  0  0  0  0  0  0  0  0  0
  129.9528  144.6850  141.1593 C   0  0  0  0  0  0  0  0  0  0  0  0
  130.2431  146.0906  140.7935 C   0  0  0  0  0  0  0  0  0  0  0  0
  130.6638  146.7583  141.9398 F   0  0  0  0  0  0  0  0  0  0  0  0
  131.2159  146.1720  139.8521 F   0  0  0  0  0  0  0  0  0  0  0  0
  129.0742  146.7346  140.3615 F   0  0  0  0  0  0  0  0  0  0  0  0
  130.4809  143.5950  140.5079 C   0  0  0  0  0  0  0  0  0  0  0  0
  130.2130  142.2867  140.8514 C   0  0  0  0  0  0  0  0  0  0  0  0
  130.6102  141.0733  140.3641 N   0  0  0  0  0  0  0  0  0  0  0  0
  129.5657  137.8720  141.9728 C   0  0  0  0  0  0  0  0  0  0  0  0
  129.8514  136.4196  141.9362 C   0  0  0  0  0  0  0  0  0  0  0  0
  132.2729  135.2274  137.5396 H   0  0  0  0  0  0  0  0  0  0  0  0
  132.9487  134.0076  135.4422 H   0  0  0  0  0  0  0  0  0  0  0  0
  129.5207  132.1581  138.5109 H   0  0  0  0  0  0  0  0  0  0  0  0
  132.0291  134.4209  140.8193 H   0  0  0  0  0  0  0  0  0  0  0  0
  131.5909  133.7338  143.1238 H   0  0  0  0  0  0  0  0  0  0  0  0
  130.4688  132.2573  144.6485 H   0  0  0  0  0  0  0  0  0  0  0  0
  128.3171  131.1919  143.9748 H   0  0  0  0  0  0  0  0  0  0  0  0
  127.4213  131.6967  141.7598 H   0  0  0  0  0  0  0  0  0  0  0  0
  132.3424  136.9753  140.6917 H   0  0  0  0  0  0  0  0  0  0  0  0
  131.7936  136.3715  139.1089 H   0  0  0  0  0  0  0  0  0  0  0  0
  130.2401  138.1985  138.8648 H   0  0  0  0  0  0  0  0  0  0  0  0
  131.7149  138.8855  139.5743 H   0  0  0  0  0  0  0  0  0  0  0  0
  128.1395  142.9419  143.4323 H   0  0  0  0  0  0  0  0  0  0  0  0
  131.1476  143.7882  139.6765 H   0  0  0  0  0  0  0  0  0  0  0  0
  131.2513  140.9416  139.5642 H   0  0  0  0  0  0  0  0  0  0  0  0
  129.9469  138.2847  142.9556 H   0  0  0  0  0  0  0  0  0  0  0  0
  128.4685  138.1084  142.0103 H   0  0  0  0  0  0  0  0  0  0  0  0
  128.8568  135.8989  142.0675 H   0  0  0  0  0  0  0  0  0  0  0  0
  130.4483  136.1077  142.8385 H   0  0  0  0  0  0  0  0  0  0  0  0
  1  2  2  0
  2  3  1  0
  3  4  1  0
  4  5  2  0
  5  6  1  0
  6  7  2  0
  7  8  1  0
  7  9  1  0
  9 10  1  0
  9 11  2  0
  3 12  1  0
 12 13  1  0
 13 14  2  0
 14 15  1  0
 15 16  2  0
 16 17  1  0
 17 18  2  0
 12 19  1  0
 19 20  1  0
 20 21  1  0
 21 22  1  0
 22 23  1  0
 23 24  2  0
 24 25  1  0
 25 26  2  0
 26 27  1  0
 27 28  1  0
 27 29  2  0
 29 30  1  0
 30 31  1  0
 30 32  1  0
 30 33  1  0
 29 34  1  0
 34 35  2  0
 35 36  1  0
 22 37  1  0
 37 38  1  0
 19  2  1  0
 36 23  1  0
 11  4  1  0
 18 13  1  0
 38 19  1  0
 35 25  1  0
  5 39  1  0
  6 40  1  0
 11 41  1  0
 12 42  1  6
 14 43  1  0
 15 44  1  0
 16 45  1  0
 17 46  1  0
 20 47  1  0
 20 48  1  0
 21 49  1  0
 21 50  1  0
 26 51  1  0
 34 52  1  0
 36 53  1  0
 37 54  1  0
 37 55  1  0
 38 56  1  0
 38 57  1  0
M  END
>  <docking_score>  (2) 
-9.5660000000000007

$$$$

     RDKit          3D

 57 62  0  0  0  0  0  0  0  0999 V2000
  131.7927  134.9364  142.4561 O   0  0  0  0  0  0  0  0  0  0  0  0
  131.8657  135.4806  141.3452 C   0  0  0  0  0  0  0  0  0  0  0  0
  131.2759  136.5668  140.6839 N   0  0  0  0  0  0  0  0  0  0  0  0
  130.7597  137.8475  141.0588 C   0  0  0  0  0  0  0  0  0  0  0  0
  130.2540  138.0825  142.3190 C   0  0  0  0  0  0  0  0  0  0  0  0
  129.7460  139.3087  142.7079 C   0  0  0  0  0  0  0  0  0  0  0  0
  129.7628  140.3264  141.7597 C   0  0  0  0  0  0  0  0  0  0  0  0
  129.2856  141.5536  142.0592 F   0  0  0  0  0  0  0  0  0  0  0  0
  130.2740  140.0841  140.4904 C   0  0  0  0  0  0  0  0  0  0  0  0
  130.2674  141.4148  139.3273 Cl  0  0  0  0  0  0  0  0  0  0  0  0
  130.7715  138.8649  140.1241 C   0  0  0  0  0  0  0  0  0  0  0  0
  131.4253  135.8176  139.4471 C   0  0  2  0  0  0  0  0  0  0  0  0
  130.3068  134.8929  139.2537 C   0  0  0  0  0  0  0  0  0  0  0  0
  130.0229  134.4463  137.9808 C   0  0  0  0  0  0  0  0  0  0  0  0
  128.9937  133.5680  137.7047 C   0  0  0  0  0  0  0  0  0  0  0  0
  128.2165  133.1155  138.7285 C   0  0  0  0  0  0  0  0  0  0  0  0
  128.5073  133.5674  139.9975 C   0  0  0  0  0  0  0  0  0  0  0  0
  129.5148  134.4210  140.2335 N   0  0  0  0  0  0  0  0  0  0  0  0
  132.6518  135.2373  140.1083 C   0  0  0  0  0  0  0  0  0  0  0  0
  133.8292  136.1431  139.9520 C   0  0  0  0  0  0  0  0  0  0  0  0
  134.9687  135.6986  140.8172 C   0  0  0  0  0  0  0  0  0  0  0  0
  135.1967  134.2840  140.6407 N   0  0  0  0  0  0  0  0  0  0  0  0
  136.5311  133.8156  140.9064 C   0  0  0  0  0  0  0  0  0  0  0  0
  137.1117  132.7713  140.2627 N   0  0  0  0  0  0  0  0  0  0  0  0
  138.3560  132.5707  140.7241 C   0  0  0  0  0  0  0  0  0  0  0  0
  139.3525  131.6739  140.4281 C   0  0  0  0  0  0  0  0  0  0  0  0
  140.5646  131.7061  141.0837 C   0  0  0  0  0  0  0  0  0  0  0  0
  141.5167  130.8059  140.7626 F   0  0  0  0  0  0  0  0  0  0  0  0
  140.8135  132.6534  142.0691 C   0  0  0  0  0  0  0  0  0  0  0  0
  142.1247  132.6722  142.7579 C   0  0  0  0  0  0  0  0  0  0  0  0
  142.2136  133.8537  143.4877 F   0  0  0  0  0  0  0  0  0  0  0  0
  142.2616  131.6196  143.6019 F   0  0  0  0  0  0  0  0  0  0  0  0
  143.1684  132.7009  141.8212 F   0  0  0  0  0  0  0  0  0  0  0  0
  139.7909  133.5334  142.3359 C   0  0  0  0  0  0  0  0  0  0  0  0
  138.5719  133.5176  141.6917 C   0  0  0  0  0  0  0  0  0  0  0  0
  137.4352  134.2705  141.7848 N   0  0  0  0  0  0  0  0  0  0  0  0
  134.2355  133.3118  140.2370 C   0  0  0  0  0  0  0  0  0  0  0  0
  132.9219  133.8181  139.7783 C   0  0  0  0  0  0  0  0  0  0  0  0
  130.2579  137.2637  143.0365 H   0  0  0  0  0  0  0  0  0  0  0  0
  129.3471  139.5220  143.6800 H   0  0  0  0  0  0  0  0  0  0  0  0
  131.1661  138.6705  139.1462 H   0  0  0  0  0  0  0  0  0  0  0  0
  131.6426  136.4385  138.5610 H   0  0  0  0  0  0  0  0  0  0  0  0
  130.6250  134.7942  137.1663 H   0  0  0  0  0  0  0  0  0  0  0  0
  128.8370  133.2670  136.6819 H   0  0  0  0  0  0  0  0  0  0  0  0
  127.4002  132.4223  138.5368 H   0  0  0  0  0  0  0  0  0  0  0  0
  127.8719  133.1915  140.8060 H   0  0  0  0  0  0  0  0  0  0  0  0
  134.1857  136.2058  138.9041 H   0  0  0  0  0  0  0  0  0  0  0  0
  133.4995  137.1686  140.2357 H   0  0  0  0  0  0  0  0  0  0  0  0
  134.8277  135.9958  141.8700 H   0  0  0  0  0  0  0  0  0  0  0  0
  135.8774  136.2533  140.4620 H   0  0  0  0  0  0  0  0  0  0  0  0
  139.2026  130.9015  139.6549 H   0  0  0  0  0  0  0  0  0  0  0  0
  139.9655  134.2808  143.1000 H   0  0  0  0  0  0  0  0  0  0  0  0
  137.3060  135.0632  142.4353 H   0  0  0  0  0  0  0  0  0  0  0  0
  134.7092  132.7317  139.3881 H   0  0  0  0  0  0  0  0  0  0  0  0
  134.1556  132.5432  141.0519 H   0  0  0  0  0  0  0  0  0  0  0  0
  132.1411  133.1999  140.3128 H   0  0  0  0  0  0  0  0  0  0  0  0
  132.7623  133.5835  138.6887 H   0  0  0  0  0  0  0  0  0  0  0  0
  1  2  2  0
  2  3  1  0
  3  4  1  0
  4  5  2  0
  5  6  1  0
  6  7  2  0
  7  8  1  0
  7  9  1  0
  9 10  1  0
  9 11  2  0
  3 12  1  0
 12 13  1  0
 13 14  2  0
 14 15  1  0
 15 16  2  0
 16 17  1  0
 17 18  2  0
 12 19  1  0
 19 20  1  0
 20 21  1  0
 21 22  1  0
 22 23  1  0
 23 24  2  0
 24 25  1  0
 25 26  2  0
 26 27  1  0
 27 28  1  0
 27 29  2  0
 29 30  1  0
 30 31  1  0
 30 32  1  0
 30 33  1  0
 29 34  1  0
 34 35  2  0
 35 36  1  0
 22 37  1  0
 37 38  1  0
 19  2  1  0
 36 23  1  0
 11  4  1  0
 18 13  1  0
 38 19  1  0
 35 25  1  0
  5 39  1  0
  6 40  1  0
 11 41  1  0
 12 42  1  6
 14 43  1  0
 15 44  1  0
 16 45  1  0
 17 46  1  0
 20 47  1  0
 20 48  1  0
 21 49  1  0
 21 50  1  0
 26 51  1  0
 34 52  1  0
 36 53  1  0
 37 54  1  0
 37 55  1  0
 38 56  1  0
 38 57  1  0
M  END
>  <docking_score>  (3) 
-9.5099999999999998

$$$$
