
     RDKit          3D

 54 59  0  0  0  0  0  0  0  0999 V2000
  134.1277  126.8149  140.5628 O   0  0  0  0  0  0  0  0  0  0  0  0
  133.3046  126.1414  139.9057 C   0  0  0  0  0  0  0  0  0  0  0  0
  133.2356  125.8354  138.4973 N   0  0  0  0  0  0  0  0  0  0  0  0
  133.5847  126.4806  137.2896 C   0  0  0  0  0  0  0  0  0  0  0  0
  134.6356  126.0553  136.5118 C   0  0  0  0  0  0  0  0  0  0  0  0
  134.9070  126.7272  135.3441 C   0  0  0  0  0  0  0  0  0  0  0  0
  134.1525  127.8068  134.9440 C   0  0  0  0  0  0  0  0  0  0  0  0
  134.4376  128.4507  133.7922 F   0  0  0  0  0  0  0  0  0  0  0  0
  133.0937  128.2528  135.7070 C   0  0  0  0  0  0  0  0  0  0  0  0
  132.1072  129.6264  135.2326 Cl  0  0  0  0  0  0  0  0  0  0  0  0
  132.8423  127.5552  136.8805 C   0  0  0  0  0  0  0  0  0  0  0  0
  132.6532  124.5765  138.8930 C   0  0  1  0  0  0  0  0  0  0  0  0
  133.7184  123.6653  139.4336 C   0  0  0  0  0  0  0  0  0  0  0  0
  133.4558  122.4116  139.9197 C   0  0  0  0  0  0  0  0  0  0  0  0
  134.4825  121.5975  140.4165 C   0  0  0  0  0  0  0  0  0  0  0  0
  135.7775  122.0773  140.4109 C   0  0  0  0  0  0  0  0  0  0  0  0
  135.9821  123.3432  139.9111 C   0  0  0  0  0  0  0  0  0  0  0  0
  134.9759  124.1151  139.4351 N   0  0  0  0  0  0  0  0  0  0  0  0
  132.0640  125.3395  140.0719 C   0  0  0  0  0  0  0  0  0  0  0  0
  132.0201  124.4960  141.2959 C   0  0  0  0  0  0  0  0  0  0  0  0
  130.7219  124.3763  141.9969 C   0  0  0  0  0  0  0  0  0  0  0  0
  129.8479  125.5105  141.8142 N   0  0  0  0  0  0  0  0  0  0  0  0
  128.5526  125.4050  142.3779 C   0  0  0  0  0  0  0  0  0  0  0  0
  128.1587  124.7487  143.5047 N   0  0  0  0  0  0  0  0  0  0  0  0
  126.8445  124.9115  143.7069 C   0  0  0  0  0  0  0  0  0  0  0  0
  125.9518  124.4841  144.6583 C   0  0  0  0  0  0  0  0  0  0  0  0
  124.5948  124.8171  144.6191 C   0  0  0  0  0  0  0  0  0  0  0  0
  123.7144  124.3938  145.5481 F   0  0  0  0  0  0  0  0  0  0  0  0
  124.1292  125.6062  143.5849 C   0  0  0  0  0  0  0  0  0  0  0  0
  122.4200  126.0372  143.5341 Cl  0  0  0  0  0  0  0  0  0  0  0  0
  125.0165  126.0364  142.6297 C   0  0  0  0  0  0  0  0  0  0  0  0
  126.3683  125.7003  142.6773 C   0  0  0  0  0  0  0  0  0  0  0  0
  127.4140  125.9798  141.8962 N   0  0  0  0  0  0  0  0  0  0  0  0
  130.2905  126.6666  141.0920 C   0  0  0  0  0  0  0  0  0  0  0  0
  130.8505  126.1420  139.7657 C   0  0  0  0  0  0  0  0  0  0  0  0
  135.2488  125.1902  136.8242 H   0  0  0  0  0  0  0  0  0  0  0  0
  135.7510  126.3705  134.7280 H   0  0  0  0  0  0  0  0  0  0  0  0
  131.9960  127.9238  137.4778 H   0  0  0  0  0  0  0  0  0  0  0  0
  131.9412  124.1312  138.2053 H   0  0  0  0  0  0  0  0  0  0  0  0
  132.4476  122.0246  139.9278 H   0  0  0  0  0  0  0  0  0  0  0  0
  134.2612  120.6092  140.7979 H   0  0  0  0  0  0  0  0  0  0  0  0
  136.5806  121.4618  140.7907 H   0  0  0  0  0  0  0  0  0  0  0  0
  137.0122  123.7304  139.9052 H   0  0  0  0  0  0  0  0  0  0  0  0
  132.8450  124.8888  141.9662 H   0  0  0  0  0  0  0  0  0  0  0  0
  132.3502  123.4607  141.0300 H   0  0  0  0  0  0  0  0  0  0  0  0
  130.1560  123.4573  141.7522 H   0  0  0  0  0  0  0  0  0  0  0  0
  130.9345  124.3348  143.1042 H   0  0  0  0  0  0  0  0  0  0  0  0
  126.2993  123.8730  145.4632 H   0  0  0  0  0  0  0  0  0  0  0  0
  124.6356  126.6564  141.8237 H   0  0  0  0  0  0  0  0  0  0  0  0
  127.3520  126.5646  141.0256 H   0  0  0  0  0  0  0  0  0  0  0  0
  129.4687  127.3898  140.9181 H   0  0  0  0  0  0  0  0  0  0  0  0
  131.0935  127.1579  141.6748 H   0  0  0  0  0  0  0  0  0  0  0  0
  130.0419  125.5635  139.2686 H   0  0  0  0  0  0  0  0  0  0  0  0
  131.1348  127.0471  139.1869 H   0  0  0  0  0  0  0  0  0  0  0  0
  1  2  2  0
  2  3  1  0
  3  4  1  0
  4  5  2  0
  5  6  1  0
  6  7  2  0
  7  8  1  0
  7  9  1  0
  9 10  1  0
  9 11  2  0
  3 12  1  0
 12 13  1  0
 13 14  2  0
 14 15  1  0
 15 16  2  0
 16 17  1  0
 17 18  2  0
 12 19  1  0
 19 20  1  0
 20 21  1  0
 21 22  1  0
 22 23  1  0
 23 24  2  0
 24 25  1  0
 25 26  2  0
 26 27  1  0
 27 28  1  0
 27 29  2  0
 29 30  1  0
 29 31  1  0
 31 32  2  0
 32 33  1  0
 22 34  1  0
 34 35  1  0
 19  2  1  0
 33 23  1  0
 11  4  1  0
 18 13  1  0
 35 19  1  0
 32 25  1  0
  5 36  1  0
  6 37  1  0
 11 38  1  0
 12 39  1  6
 14 40  1  0
 15 41  1  0
 16 42  1  0
 17 43  1  0
 20 44  1  0
 20 45  1  0
 21 46  1  0
 21 47  1  0
 26 48  1  0
 31 49  1  0
 33 50  1  0
 34 51  1  0
 34 52  1  0
 35 53  1  0
 35 54  1  0
M  END
>  <docking_score>  (1) 
-10.231

$$$$

     RDKit          3D

 54 59  0  0  0  0  0  0  0  0999 V2000
  134.7242  131.3069  138.8899 O   0  0  0  0  0  0  0  0  0  0  0  0
  134.5517  132.2123  138.0453 C   0  0  0  0  0  0  0  0  0  0  0  0
  135.2885  132.5521  136.8522 N   0  0  0  0  0  0  0  0  0  0  0  0
  136.6342  132.4896  136.4254 C   0  0  0  0  0  0  0  0  0  0  0  0
  137.6276  131.9639  137.2171 C   0  0  0  0  0  0  0  0  0  0  0  0
  138.9114  131.9269  136.7281 C   0  0  0  0  0  0  0  0  0  0  0  0
  139.2162  132.4017  135.4724 C   0  0  0  0  0  0  0  0  0  0  0  0
  140.4847  132.3541  135.0130 F   0  0  0  0  0  0  0  0  0  0  0  0
  138.2375  132.9341  134.6596 C   0  0  0  0  0  0  0  0  0  0  0  0
  138.5848  133.5511  133.0521 Cl  0  0  0  0  0  0  0  0  0  0  0  0
  136.9504  132.9582  135.1789 C   0  0  0  0  0  0  0  0  0  0  0  0
  134.0244  132.9780  136.3034 C   0  0  1  0  0  0  0  0  0  0  0  0
  133.2015  131.7808  135.9201 C   0  0  0  0  0  0  0  0  0  0  0  0
  131.8892  131.8657  135.5359 C   0  0  0  0  0  0  0  0  0  0  0  0
  131.1603  130.7202  135.1893 C   0  0  0  0  0  0  0  0  0  0  0  0
  131.7856  129.4899  135.2394 C   0  0  0  0  0  0  0  0  0  0  0  0
  133.1044  129.4649  135.6324 C   0  0  0  0  0  0  0  0  0  0  0  0
  133.7921  130.5838  135.9637 N   0  0  0  0  0  0  0  0  0  0  0  0
  133.6495  133.3512  137.7313 C   0  0  0  0  0  0  0  0  0  0  0  0
  132.2074  133.1022  137.9958 C   0  0  0  0  0  0  0  0  0  0  0  0
  131.4100  134.2222  138.5441 C   0  0  0  0  0  0  0  0  0  0  0  0
  132.1792  135.1705  139.3140 N   0  0  0  0  0  0  0  0  0  0  0  0
  131.4865  136.3165  139.7760 C   0  0  0  0  0  0  0  0  0  0  0  0
  130.5775  136.4199  140.7852 N   0  0  0  0  0  0  0  0  0  0  0  0
  130.1704  137.6889  140.9214 C   0  0  0  0  0  0  0  0  0  0  0  0
  129.2934  138.3396  141.7533 C   0  0  0  0  0  0  0  0  0  0  0  0
  129.0569  139.7146  141.6687 C   0  0  0  0  0  0  0  0  0  0  0  0
  128.1916  140.3556  142.4797 F   0  0  0  0  0  0  0  0  0  0  0  0
  129.7289  140.4514  140.7123 C   0  0  0  0  0  0  0  0  0  0  0  0
  129.4417  142.1881  140.6057 Cl  0  0  0  0  0  0  0  0  0  0  0  0
  130.6068  139.8067  139.8766 C   0  0  0  0  0  0  0  0  0  0  0  0
  130.8372  138.4353  139.9689 C   0  0  0  0  0  0  0  0  0  0  0  0
  131.6179  137.5862  139.2971 N   0  0  0  0  0  0  0  0  0  0  0  0
  133.5696  134.9429  139.5773 C   0  0  0  0  0  0  0  0  0  0  0  0
  134.2085  134.6402  138.2179 C   0  0  0  0  0  0  0  0  0  0  0  0
  137.3942  131.5809  138.2274 H   0  0  0  0  0  0  0  0  0  0  0  0
  139.6972  131.4972  137.3739 H   0  0  0  0  0  0  0  0  0  0  0  0
  136.1821  133.3867  134.5193 H   0  0  0  0  0  0  0  0  0  0  0  0
  134.0538  133.7924  135.5863 H   0  0  0  0  0  0  0  0  0  0  0  0
  131.3897  132.8222  135.4911 H   0  0  0  0  0  0  0  0  0  0  0  0
  130.1241  130.8013  134.8878 H   0  0  0  0  0  0  0  0  0  0  0  0
  131.2372  128.5968  134.9753 H   0  0  0  0  0  0  0  0  0  0  0  0
  133.6069  128.4867  135.6747 H   0  0  0  0  0  0  0  0  0  0  0  0
  132.1731  132.1784  138.6511 H   0  0  0  0  0  0  0  0  0  0  0  0
  131.7180  132.7822  137.0421 H   0  0  0  0  0  0  0  0  0  0  0  0
  130.8276  134.7797  137.7859 H   0  0  0  0  0  0  0  0  0  0  0  0
  130.6599  133.7862  139.2654 H   0  0  0  0  0  0  0  0  0  0  0  0
  128.7672  137.7810  142.4970 H   0  0  0  0  0  0  0  0  0  0  0  0
  131.1279  140.3995  139.1308 H   0  0  0  0  0  0  0  0  0  0  0  0
  132.2439  137.8727  138.5034 H   0  0  0  0  0  0  0  0  0  0  0  0
  134.0520  135.8179  140.0572 H   0  0  0  0  0  0  0  0  0  0  0  0
  133.6608  134.0632  140.2435 H   0  0  0  0  0  0  0  0  0  0  0  0
  133.9960  135.5034  137.5506 H   0  0  0  0  0  0  0  0  0  0  0  0
  135.2950  134.5255  138.4215 H   0  0  0  0  0  0  0  0  0  0  0  0
  1  2  2  0
  2  3  1  0
  3  4  1  0
  4  5  2  0
  5  6  1  0
  6  7  2  0
  7  8  1  0
  7  9  1  0
  9 10  1  0
  9 11  2  0
  3 12  1  0
 12 13  1  0
 13 14  2  0
 14 15  1  0
 15 16  2  0
 16 17  1  0
 17 18  2  0
 12 19  1  0
 19 20  1  0
 20 21  1  0
 21 22  1  0
 22 23  1  0
 23 24  2  0
 24 25  1  0
 25 26  2  0
 26 27  1  0
 27 28  1  0
 27 29  2  0
 29 30  1  0
 29 31  1  0
 31 32  2  0
 32 33  1  0
 22 34  1  0
 34 35  1  0
 19  2  1  0
 33 23  1  0
 11  4  1  0
 18 13  1  0
 35 19  1  0
 32 25  1  0
  5 36  1  0
  6 37  1  0
 11 38  1  0
 12 39  1  6
 14 40  1  0
 15 41  1  0
 16 42  1  0
 17 43  1  0
 20 44  1  0
 20 45  1  0
 21 46  1  0
 21 47  1  0
 26 48  1  0
 31 49  1  0
 33 50  1  0
 34 51  1  0
 34 52  1  0
 35 53  1  0
 35 54  1  0
M  END
>  <docking_score>  (2) 
-10.1

$$$$

     RDKit          3D

 54 59  0  0  0  0  0  0  0  0999 V2000
  134.8377  131.1423  138.8049 O   0  0  0  0  0  0  0  0  0  0  0  0
  134.6399  132.0664  137.9866 C   0  0  0  0  0  0  0  0  0  0  0  0
  135.3492  132.4426  136.7878 N   0  0  0  0  0  0  0  0  0  0  0  0
  136.6865  132.4036  136.3327 C   0  0  0  0  0  0  0  0  0  0  0  0
  137.7063  131.9007  137.1054 C   0  0  0  0  0  0  0  0  0  0  0  0
  138.9800  131.8858  136.5894 C   0  0  0  0  0  0  0  0  0  0  0  0
  139.2489  132.3602  135.3255 C   0  0  0  0  0  0  0  0  0  0  0  0
  140.5082  132.3345  134.8394 F   0  0  0  0  0  0  0  0  0  0  0  0
  138.2432  132.8700  134.5313 C   0  0  0  0  0  0  0  0  0  0  0  0
  138.5446  133.4857  132.9140 Cl  0  0  0  0  0  0  0  0  0  0  0  0
  136.9672  132.8721  135.0777 C   0  0  0  0  0  0  0  0  0  0  0  0
  134.0704  132.8696  136.2751 C   0  0  1  0  0  0  0  0  0  0  0  0
  133.2510  131.6742  135.8788 C   0  0  0  0  0  0  0  0  0  0  0  0
  131.9348  131.7579  135.5076 C   0  0  0  0  0  0  0  0  0  0  0  0
  131.2093  130.6142  135.1481 C   0  0  0  0  0  0  0  0  0  0  0  0
  131.8421  129.3869  135.1719 C   0  0  0  0  0  0  0  0  0  0  0  0
  133.1644  129.3629  135.5528 C   0  0  0  0  0  0  0  0  0  0  0  0
  133.8487  130.4801  135.8969 N   0  0  0  0  0  0  0  0  0  0  0  0
  133.7210  133.2039  137.7190 C   0  0  0  0  0  0  0  0  0  0  0  0
  132.2870  132.9345  138.0060 C   0  0  0  0  0  0  0  0  0  0  0  0
  131.4905  134.0330  138.5978 C   0  0  0  0  0  0  0  0  0  0  0  0
  132.2664  134.9695  139.3753 N   0  0  0  0  0  0  0  0  0  0  0  0
  131.5727  136.0970  139.8793 C   0  0  0  0  0  0  0  0  0  0  0  0
  131.3083  137.2851  139.2676 N   0  0  0  0  0  0  0  0  0  0  0  0
  130.6037  138.0841  140.0799 C   0  0  0  0  0  0  0  0  0  0  0  0
  130.0842  139.3508  139.9787 C   0  0  0  0  0  0  0  0  0  0  0  0
  129.3685  139.9546  141.0164 C   0  0  0  0  0  0  0  0  0  0  0  0
  128.8625  141.2006  140.9228 F   0  0  0  0  0  0  0  0  0  0  0  0
  129.1741  139.2539  142.1913 C   0  0  0  0  0  0  0  0  0  0  0  0
  128.2647  140.0064  143.5013 Cl  0  0  0  0  0  0  0  0  0  0  0  0
  129.6917  137.9869  142.2993 C   0  0  0  0  0  0  0  0  0  0  0  0
  130.4033  137.3922  141.2589 C   0  0  0  0  0  0  0  0  0  0  0  0
  130.9958  136.2053  141.1098 N   0  0  0  0  0  0  0  0  0  0  0  0
  133.6638  134.7489  139.6050 C   0  0  0  0  0  0  0  0  0  0  0  0
  134.2779  134.4859  138.2260 C   0  0  0  0  0  0  0  0  0  0  0  0
  137.5018  131.5182  138.1222 H   0  0  0  0  0  0  0  0  0  0  0  0
  139.7873  131.4742  137.2202 H   0  0  0  0  0  0  0  0  0  0  0  0
  136.1771  133.2827  134.4327 H   0  0  0  0  0  0  0  0  0  0  0  0
  134.0778  133.7015  135.5779 H   0  0  0  0  0  0  0  0  0  0  0  0
  131.4295  132.7121  135.4835 H   0  0  0  0  0  0  0  0  0  0  0  0
  130.1701  130.6944  134.8572 H   0  0  0  0  0  0  0  0  0  0  0  0
  131.2964  128.4952  134.8975 H   0  0  0  0  0  0  0  0  0  0  0  0
  133.6729  128.3871  135.5740 H   0  0  0  0  0  0  0  0  0  0  0  0
  132.2744  131.9947  138.6389 H   0  0  0  0  0  0  0  0  0  0  0  0
  131.7813  132.6334  137.0547 H   0  0  0  0  0  0  0  0  0  0  0  0
  130.8878  134.6033  137.8654 H   0  0  0  0  0  0  0  0  0  0  0  0
  130.7592  133.5721  139.3229 H   0  0  0  0  0  0  0  0  0  0  0  0
  130.2278  139.9033  139.0754 H   0  0  0  0  0  0  0  0  0  0  0  0
  129.5299  137.4486  143.2284 H   0  0  0  0  0  0  0  0  0  0  0  0
  131.0102  135.4631  141.8533 H   0  0  0  0  0  0  0  0  0  0  0  0
  134.1479  135.6165  140.0967 H   0  0  0  0  0  0  0  0  0  0  0  0
  133.7766  133.8541  140.2473 H   0  0  0  0  0  0  0  0  0  0  0  0
  134.0440  135.3632  137.5847 H   0  0  0  0  0  0  0  0  0  0  0  0
  135.3693  134.3768  138.4050 H   0  0  0  0  0  0  0  0  0  0  0  0
  1  2  2  0
  2  3  1  0
  3  4  1  0
  4  5  2  0
  5  6  1  0
  6  7  2  0
  7  8  1  0
  7  9  1  0
  9 10  1  0
  9 11  2  0
  3 12  1  0
 12 13  1  0
 13 14  2  0
 14 15  1  0
 15 16  2  0
 16 17  1  0
 17 18  2  0
 12 19  1  0
 19 20  1  0
 20 21  1  0
 21 22  1  0
 22 23  1  0
 23 24  2  0
 24 25  1  0
 25 26  2  0
 26 27  1  0
 27 28  1  0
 27 29  2  0
 29 30  1  0
 29 31  1  0
 31 32  2  0
 32 33  1  0
 22 34  1  0
 34 35  1  0
 19  2  1  0
 33 23  1  0
 11  4  1  0
 18 13  1  0
 35 19  1  0
 32 25  1  0
  5 36  1  0
  6 37  1  0
 11 38  1  0
 12 39  1  6
 14 40  1  0
 15 41  1  0
 16 42  1  0
 17 43  1  0
 20 44  1  0
 20 45  1  0
 21 46  1  0
 21 47  1  0
 26 48  1  0
 31 49  1  0
 33 50  1  0
 34 51  1  0
 34 52  1  0
 35 53  1  0
 35 54  1  0
M  END
>  <docking_score>  (3) 
-9.7680000000000007

$$$$
