
     RDKit          3D

 75 78  0  0  0  0  0  0  0  0999 V2000
  137.5203  131.6668  138.9917 C   0  0  0  0  0  0  0  0  0  0  0  0
  136.6592  130.5873  139.6074 C   0  0  0  0  0  0  0  0  0  0  0  0
  136.3296  130.6710  140.8790 C   0  0  0  0  0  0  0  0  0  0  0  0
  136.8268  131.8258  141.6369 C   0  0  0  0  0  0  0  0  0  0  0  0
  136.2124  132.8965  141.7364 O   0  0  0  0  0  0  0  0  0  0  0  0
  138.0398  131.7285  142.2771 O   0  0  0  0  0  0  0  0  0  0  0  0
  139.1784  132.3882  141.7653 C   0  0  0  0  0  0  0  0  0  0  0  0
  139.0982  133.8455  142.0844 C   0  0  0  0  0  0  0  0  0  0  0  0
  140.4004  131.8117  142.4673 C   0  0  0  0  0  0  0  0  0  0  0  0
  135.4880  129.6678  141.5481 C   0  0  2  0  0  0  0  0  0  0  0  0
  136.1216  129.1884  142.8208 C   0  0  0  0  0  0  0  0  0  0  0  0
  135.4636  129.3927  144.0309 C   0  0  0  0  0  0  0  0  0  0  0  0
  135.9902  128.9977  145.2428 C   0  0  0  0  0  0  0  0  0  0  0  0
  137.2393  128.3657  145.2476 C   0  0  0  0  0  0  0  0  0  0  0  0
  137.9138  128.1505  144.0657 C   0  0  0  0  0  0  0  0  0  0  0  0
  139.4707  127.3557  144.1375 Cl  0  0  0  0  0  0  0  0  0  0  0  0
  137.3446  128.5644  142.8793 C   0  0  0  0  0  0  0  0  0  0  0  0
  135.0806  128.5571  140.7370 N   0  0  0  0  0  0  0  0  0  0  0  0
  134.2842  127.5115  141.3676 C   0  0  0  0  0  0  0  0  0  0  0  0
  132.8290  127.8178  141.3497 C   0  0  0  0  0  0  0  0  0  0  0  0
  132.0186  126.5674  141.2349 C   0  0  0  0  0  0  0  0  0  0  0  0
  131.8518  126.1199  139.8294 N   0  0  0  0  0  0  0  0  0  0  0  0
  131.6465  127.1407  138.8430 C   0  0  0  0  0  0  0  0  0  0  0  0
  131.9204  124.7448  139.6136 C   0  0  0  0  0  0  0  0  0  0  0  0
  130.7954  124.1777  139.2901 O   0  0  0  0  0  0  0  0  0  0  0  0
  133.0440  123.8372  139.6900 C   0  0  0  0  0  0  0  0  0  0  0  0
  132.8204  122.4983  140.0677 C   0  0  0  0  0  0  0  0  0  0  0  0
  133.8182  121.5760  140.1775 C   0  0  0  0  0  0  0  0  0  0  0  0
  135.1274  121.9112  139.9196 C   0  0  0  0  0  0  0  0  0  0  0  0
  136.1172  120.9585  140.0381 O   0  0  0  0  0  0  0  0  0  0  0  0
  136.1189  119.8671  139.1864 C   0  0  0  0  0  0  0  0  0  0  0  0
  135.8587  118.6205  139.7224 C   0  0  0  0  0  0  0  0  0  0  0  0
  135.8599  117.5311  138.8757 C   0  0  0  0  0  0  0  0  0  0  0  0
  136.1159  117.6905  137.5254 C   0  0  0  0  0  0  0  0  0  0  0  0
  136.3794  118.9368  136.9706 C   0  0  0  0  0  0  0  0  0  0  0  0
  136.3750  120.0122  137.8248 C   0  0  0  0  0  0  0  0  0  0  0  0
  135.3597  123.2044  139.5529 C   0  0  0  0  0  0  0  0  0  0  0  0
  134.3549  124.1653  139.4342 C   0  0  0  0  0  0  0  0  0  0  0  0
  135.4485  128.4976  139.3785 C   0  0  0  0  0  0  0  0  0  0  0  0
  135.0849  127.5459  138.6420 O   0  0  0  0  0  0  0  0  0  0  0  0
  136.2478  129.5105  138.7773 N   0  0  0  0  0  0  0  0  0  0  0  0
  138.4228  131.2737  138.5201 H   0  0  0  0  0  0  0  0  0  0  0  0
  136.9098  132.0763  138.1300 H   0  0  0  0  0  0  0  0  0  0  0  0
  137.6552  132.5285  139.6555 H   0  0  0  0  0  0  0  0  0  0  0  0
  139.2953  132.1745  140.6882 H   0  0  0  0  0  0  0  0  0  0  0  0
  138.7217  134.4387  141.2207 H   0  0  0  0  0  0  0  0  0  0  0  0
  138.4196  134.0138  142.9526 H   0  0  0  0  0  0  0  0  0  0  0  0
  140.1074  134.2251  142.3723 H   0  0  0  0  0  0  0  0  0  0  0  0
  140.1248  130.9271  143.0863 H   0  0  0  0  0  0  0  0  0  0  0  0
  141.1625  131.4672  141.7333 H   0  0  0  0  0  0  0  0  0  0  0  0
  140.8832  132.5573  143.1348 H   0  0  0  0  0  0  0  0  0  0  0  0
  134.5292  130.1690  141.8799 H   0  0  0  0  0  0  0  0  0  0  0  0
  134.4913  129.8859  144.0152 H   0  0  0  0  0  0  0  0  0  0  0  0
  135.4879  129.1515  146.1867 H   0  0  0  0  0  0  0  0  0  0  0  0
  137.6316  128.0652  146.2068 H   0  0  0  0  0  0  0  0  0  0  0  0
  137.8890  128.4017  141.9641 H   0  0  0  0  0  0  0  0  0  0  0  0
  134.4397  126.5753  140.7950 H   0  0  0  0  0  0  0  0  0  0  0  0
  134.6932  127.3605  142.3787 H   0  0  0  0  0  0  0  0  0  0  0  0
  132.6406  128.5343  140.5195 H   0  0  0  0  0  0  0  0  0  0  0  0
  132.4757  128.3448  142.2629 H   0  0  0  0  0  0  0  0  0  0  0  0
  131.0171  126.6715  141.7085 H   0  0  0  0  0  0  0  0  0  0  0  0
  132.5424  125.7455  141.7508 H   0  0  0  0  0  0  0  0  0  0  0  0
  131.6786  126.6373  137.8177 H   0  0  0  0  0  0  0  0  0  0  0  0
  132.4173  127.9082  138.7652 H   0  0  0  0  0  0  0  0  0  0  0  0
  130.6309  127.6052  138.8755 H   0  0  0  0  0  0  0  0  0  0  0  0
  131.7785  122.2108  140.2773 H   0  0  0  0  0  0  0  0  0  0  0  0
  133.5572  120.5520  140.4781 H   0  0  0  0  0  0  0  0  0  0  0  0
  135.6589  118.4973  140.7767 H   0  0  0  0  0  0  0  0  0  0  0  0
  135.6605  116.5159  139.2402 H   0  0  0  0  0  0  0  0  0  0  0  0
  136.1236  116.8553  136.8378 H   0  0  0  0  0  0  0  0  0  0  0  0
  136.5796  119.0642  135.9175 H   0  0  0  0  0  0  0  0  0  0  0  0
  136.5725  121.0170  137.4636 H   0  0  0  0  0  0  0  0  0  0  0  0
  136.4011  123.4834  139.3446 H   0  0  0  0  0  0  0  0  0  0  0  0
  134.6161  125.1573  139.1501 H   0  0  0  0  0  0  0  0  0  0  0  0
  136.5237  129.4700  137.7690 H   0  0  0  0  0  0  0  0  0  0  0  0
  1  2  1  0
  2  3  2  0
  3  4  1  0
  4  5  2  0
  4  6  1  0
  6  7  1  0
  7  8  1  0
  7  9  1  0
  3 10  1  0
 10 11  1  0
 11 12  2  0
 12 13  1  0
 13 14  2  0
 14 15  1  0
 15 16  1  0
 15 17  2  0
 10 18  1  0
 18 19  1  0
 19 20  1  0
 20 21  1  0
 21 22  1  0
 22 23  1  0
 22 24  1  0
 24 25  2  0
 24 26  1  0
 26 27  2  0
 27 28  1  0
 28 29  2  0
 29 30  1  0
 30 31  1  0
 31 32  2  0
 32 33  1  0
 33 34  2  0
 34 35  1  0
 35 36  2  0
 29 37  1  0
 37 38  2  0
 18 39  1  0
 39 40  2  0
 39 41  1  0
 41  2  1  0
 17 11  1  0
 38 26  1  0
 36 31  1  0
  1 42  1  0
  1 43  1  0
  1 44  1  0
  7 45  1  0
  8 46  1  0
  8 47  1  0
  8 48  1  0
  9 49  1  0
  9 50  1  0
  9 51  1  0
 10 52  1  1
 12 53  1  0
 13 54  1  0
 14 55  1  0
 17 56  1  0
 19 57  1  0
 19 58  1  0
 20 59  1  0
 20 60  1  0
 21 61  1  0
 21 62  1  0
 23 63  1  0
 23 64  1  0
 23 65  1  0
 27 66  1  0
 28 67  1  0
 32 68  1  0
 33 69  1  0
 34 70  1  0
 35 71  1  0
 36 72  1  0
 37 73  1  0
 38 74  1  0
 41 75  1  0
M  END
>  <docking_score>  (1) 
-7.1900000000000004

$$$$

     RDKit          3D

 75 78  0  0  0  0  0  0  0  0999 V2000
  128.6431  130.9149  142.4336 C   0  0  0  0  0  0  0  0  0  0  0  0
  129.1070  130.1870  141.1924 C   0  0  0  0  0  0  0  0  0  0  0  0
  129.0702  128.8715  141.1635 C   0  0  0  0  0  0  0  0  0  0  0  0
  128.5741  128.1775  142.3582 C   0  0  0  0  0  0  0  0  0  0  0  0
  129.1897  128.1362  143.4321 O   0  0  0  0  0  0  0  0  0  0  0  0
  127.3609  127.5333  142.2971 O   0  0  0  0  0  0  0  0  0  0  0  0
  127.2952  126.1230  142.2797 C   0  0  0  0  0  0  0  0  0  0  0  0
  128.2210  125.5660  143.3115 C   0  0  0  0  0  0  0  0  0  0  0  0
  125.8730  125.7226  142.6476 C   0  0  0  0  0  0  0  0  0  0  0  0
  129.4941  128.0916  139.9911 C   0  0  2  0  0  0  0  0  0  0  0  0
  130.4653  127.0149  140.3768 C   0  0  0  0  0  0  0  0  0  0  0  0
  130.1653  125.6871  140.0836 C   0  0  0  0  0  0  0  0  0  0  0  0
  130.9981  124.6414  140.4227 C   0  0  0  0  0  0  0  0  0  0  0  0
  132.1932  124.9361  141.0896 C   0  0  0  0  0  0  0  0  0  0  0  0
  132.5163  126.2406  141.3931 C   0  0  0  0  0  0  0  0  0  0  0  0
  134.0238  126.5443  142.2274 Cl  0  0  0  0  0  0  0  0  0  0  0  0
  131.6496  127.2514  141.0325 C   0  0  0  0  0  0  0  0  0  0  0  0
  129.9982  128.8544  138.8859 N   0  0  0  0  0  0  0  0  0  0  0  0
  130.4755  128.1242  137.7180 C   0  0  0  0  0  0  0  0  0  0  0  0
  131.9011  128.4153  137.4103 C   0  0  0  0  0  0  0  0  0  0  0  0
  132.7477  127.1962  137.5851 C   0  0  0  0  0  0  0  0  0  0  0  0
  134.0289  127.4830  138.2780 N   0  0  0  0  0  0  0  0  0  0  0  0
  134.1128  128.7178  139.0027 C   0  0  0  0  0  0  0  0  0  0  0  0
  135.0203  126.5111  138.1564 C   0  0  0  0  0  0  0  0  0  0  0  0
  135.9401  126.7651  137.2726 O   0  0  0  0  0  0  0  0  0  0  0  0
  135.1970  125.2576  138.8561 C   0  0  0  0  0  0  0  0  0  0  0  0
  136.2516  125.1311  139.7820 C   0  0  0  0  0  0  0  0  0  0  0  0
  136.5016  123.9863  140.4785 C   0  0  0  0  0  0  0  0  0  0  0  0
  135.7193  122.8670  140.3104 C   0  0  0  0  0  0  0  0  0  0  0  0
  135.9943  121.7220  141.0278 O   0  0  0  0  0  0  0  0  0  0  0  0
  136.5242  120.6205  140.3778 C   0  0  0  0  0  0  0  0  0  0  0  0
  137.8763  120.3709  140.5127 C   0  0  0  0  0  0  0  0  0  0  0  0
  138.4069  119.2738  139.8658 C   0  0  0  0  0  0  0  0  0  0  0  0
  137.5992  118.4488  139.1032 C   0  0  0  0  0  0  0  0  0  0  0  0
  136.2380  118.6857  138.9573 C   0  0  0  0  0  0  0  0  0  0  0  0
  135.7234  119.7811  139.6065 C   0  0  0  0  0  0  0  0  0  0  0  0
  134.6942  122.9741  139.4168 C   0  0  0  0  0  0  0  0  0  0  0  0
  134.4196  124.1350  138.6929 C   0  0  0  0  0  0  0  0  0  0  0  0
  130.0229  130.2616  138.9472 C   0  0  0  0  0  0  0  0  0  0  0  0
  130.4392  130.9526  137.9831 O   0  0  0  0  0  0  0  0  0  0  0  0
  129.5786  130.9656  140.1018 N   0  0  0  0  0  0  0  0  0  0  0  0
  129.3268  131.7077  142.7424 H   0  0  0  0  0  0  0  0  0  0  0  0
  127.7022  131.4626  142.1209 H   0  0  0  0  0  0  0  0  0  0  0  0
  128.3042  130.2320  143.2212 H   0  0  0  0  0  0  0  0  0  0  0  0
  127.4836  125.7415  141.2607 H   0  0  0  0  0  0  0  0  0  0  0  0
  129.2587  125.4588  142.9225 H   0  0  0  0  0  0  0  0  0  0  0  0
  128.2451  126.2294  144.2071 H   0  0  0  0  0  0  0  0  0  0  0  0
  127.8549  124.5667  143.6473 H   0  0  0  0  0  0  0  0  0  0  0  0
  125.2199  126.6195  142.7511 H   0  0  0  0  0  0  0  0  0  0  0  0
  125.4178  125.0811  141.8605 H   0  0  0  0  0  0  0  0  0  0  0  0
  125.8366  125.1624  143.6065 H   0  0  0  0  0  0  0  0  0  0  0  0
  128.5960  127.5327  139.5893 H   0  0  0  0  0  0  0  0  0  0  0  0
  129.2319  125.4692  139.5639 H   0  0  0  0  0  0  0  0  0  0  0  0
  130.7746  123.6083  140.2000 H   0  0  0  0  0  0  0  0  0  0  0  0
  132.8291  124.1026  141.3447 H   0  0  0  0  0  0  0  0  0  0  0  0
  131.9085  128.2654  141.2878 H   0  0  0  0  0  0  0  0  0  0  0  0
  130.3914  127.0411  137.9379 H   0  0  0  0  0  0  0  0  0  0  0  0
  129.7871  128.3549  136.8901 H   0  0  0  0  0  0  0  0  0  0  0  0
  132.2238  129.2632  138.0545 H   0  0  0  0  0  0  0  0  0  0  0  0
  132.0661  128.7723  136.3702 H   0  0  0  0  0  0  0  0  0  0  0  0
  132.9591  126.6898  136.6170 H   0  0  0  0  0  0  0  0  0  0  0  0
  132.2162  126.4727  138.2254 H   0  0  0  0  0  0  0  0  0  0  0  0
  135.2161  129.0107  139.0532 H   0  0  0  0  0  0  0  0  0  0  0  0
  133.8167  128.6905  140.0520 H   0  0  0  0  0  0  0  0  0  0  0  0
  133.6351  129.5831  138.4818 H   0  0  0  0  0  0  0  0  0  0  0  0
  136.8881  126.0170  139.9308 H   0  0  0  0  0  0  0  0  0  0  0  0
  137.3454  123.9722  141.1820 H   0  0  0  0  0  0  0  0  0  0  0  0
  138.5058  121.0156  141.1084 H   0  0  0  0  0  0  0  0  0  0  0  0
  139.4724  119.0224  139.9337 H   0  0  0  0  0  0  0  0  0  0  0  0
  137.9869  117.5820  138.5847 H   0  0  0  0  0  0  0  0  0  0  0  0
  135.6054  118.0440  138.3628 H   0  0  0  0  0  0  0  0  0  0  0  0
  134.6685  120.0296  139.5390 H   0  0  0  0  0  0  0  0  0  0  0  0
  134.0632  122.0868  139.2745 H   0  0  0  0  0  0  0  0  0  0  0  0
  133.6053  124.1388  138.0074 H   0  0  0  0  0  0  0  0  0  0  0  0
  129.5956  132.0104  140.1518 H   0  0  0  0  0  0  0  0  0  0  0  0
  1  2  1  0
  2  3  2  0
  3  4  1  0
  4  5  2  0
  4  6  1  0
  6  7  1  0
  7  8  1  0
  7  9  1  0
  3 10  1  0
 10 11  1  0
 11 12  2  0
 12 13  1  0
 13 14  2  0
 14 15  1  0
 15 16  1  0
 15 17  2  0
 10 18  1  0
 18 19  1  0
 19 20  1  0
 20 21  1  0
 21 22  1  0
 22 23  1  0
 22 24  1  0
 24 25  2  0
 24 26  1  0
 26 27  2  0
 27 28  1  0
 28 29  2  0
 29 30  1  0
 30 31  1  0
 31 32  2  0
 32 33  1  0
 33 34  2  0
 34 35  1  0
 35 36  2  0
 29 37  1  0
 37 38  2  0
 18 39  1  0
 39 40  2  0
 39 41  1  0
 41  2  1  0
 17 11  1  0
 38 26  1  0
 36 31  1  0
  1 42  1  0
  1 43  1  0
  1 44  1  0
  7 45  1  0
  8 46  1  0
  8 47  1  0
  8 48  1  0
  9 49  1  0
  9 50  1  0
  9 51  1  0
 10 52  1  6
 12 53  1  0
 13 54  1  0
 14 55  1  0
 17 56  1  0
 19 57  1  0
 19 58  1  0
 20 59  1  0
 20 60  1  0
 21 61  1  0
 21 62  1  0
 23 63  1  0
 23 64  1  0
 23 65  1  0
 27 66  1  0
 28 67  1  0
 32 68  1  0
 33 69  1  0
 34 70  1  0
 35 71  1  0
 36 72  1  0
 37 73  1  0
 38 74  1  0
 41 75  1  0
M  END
>  <docking_score>  (2) 
-7.0519999999999996

$$$$

     RDKit          3D

 75 78  0  0  0  0  0  0  0  0999 V2000
  134.5378  125.6777  137.0541 C   0  0  0  0  0  0  0  0  0  0  0  0
  134.8293  126.6449  138.1790 C   0  0  0  0  0  0  0  0  0  0  0  0
  135.0203  126.1813  139.3960 C   0  0  0  0  0  0  0  0  0  0  0  0
  134.9362  124.7289  139.5928 C   0  0  0  0  0  0  0  0  0  0  0  0
  135.8941  124.0286  139.9476 O   0  0  0  0  0  0  0  0  0  0  0  0
  133.7346  124.0970  139.3749 O   0  0  0  0  0  0  0  0  0  0  0  0
  133.0853  123.4055  140.4208 C   0  0  0  0  0  0  0  0  0  0  0  0
  131.6356  123.7661  140.4350 C   0  0  0  0  0  0  0  0  0  0  0  0
  133.2044  121.9152  140.1325 C   0  0  0  0  0  0  0  0  0  0  0  0
  135.3183  127.0556  140.5403 C   0  0  2  0  0  0  0  0  0  0  0  0
  134.4086  126.7650  141.6976 C   0  0  0  0  0  0  0  0  0  0  0  0
  134.9447  126.2528  142.8763 C   0  0  0  0  0  0  0  0  0  0  0  0
  134.1712  125.9433  143.9753 C   0  0  0  0  0  0  0  0  0  0  0  0
  132.7899  126.1560  143.8940 C   0  0  0  0  0  0  0  0  0  0  0  0
  132.2313  126.6615  142.7405 C   0  0  0  0  0  0  0  0  0  0  0  0
  130.4992  126.9049  142.7008 Cl  0  0  0  0  0  0  0  0  0  0  0  0
  133.0479  126.9551  141.6682 C   0  0  0  0  0  0  0  0  0  0  0  0
  135.3438  128.4618  140.2584 N   0  0  0  0  0  0  0  0  0  0  0  0
  135.5879  129.3730  141.3698 C   0  0  0  0  0  0  0  0  0  0  0  0
  137.0279  129.4515  141.7333 C   0  0  0  0  0  0  0  0  0  0  0  0
  137.5800  130.8108  141.4489 C   0  0  0  0  0  0  0  0  0  0  0  0
  138.8721  131.0596  142.1360 N   0  0  0  0  0  0  0  0  0  0  0  0
  139.2627  130.1181  143.1450 C   0  0  0  0  0  0  0  0  0  0  0  0
  139.5787  132.1863  141.7196 C   0  0  0  0  0  0  0  0  0  0  0  0
  139.6347  133.1564  142.5843 O   0  0  0  0  0  0  0  0  0  0  0  0
  140.2655  132.4573  140.4758 C   0  0  0  0  0  0  0  0  0  0  0  0
  139.9476  133.6267  139.7568 C   0  0  0  0  0  0  0  0  0  0  0  0
  140.5341  133.9582  138.5718 C   0  0  0  0  0  0  0  0  0  0  0  0
  141.4901  133.1498  138.0012 C   0  0  0  0  0  0  0  0  0  0  0  0
  142.0675  133.5092  136.8017 O   0  0  0  0  0  0  0  0  0  0  0  0
  141.3474  133.3659  135.6280 C   0  0  0  0  0  0  0  0  0  0  0  0
  141.6548  134.1969  134.5679 C   0  0  0  0  0  0  0  0  0  0  0  0
  140.9386  134.0562  133.3971 C   0  0  0  0  0  0  0  0  0  0  0  0
  139.9393  133.1048  133.2944 C   0  0  0  0  0  0  0  0  0  0  0  0
  139.6177  132.2614  134.3507 C   0  0  0  0  0  0  0  0  0  0  0  0
  140.3385  132.4124  135.5099 C   0  0  0  0  0  0  0  0  0  0  0  0
  141.8084  132.0137  138.6858 C   0  0  0  0  0  0  0  0  0  0  0  0
  141.2215  131.6539  139.8995 C   0  0  0  0  0  0  0  0  0  0  0  0
  135.1371  128.9261  138.9446 C   0  0  0  0  0  0  0  0  0  0  0  0
  135.1768  130.1520  138.6687 O   0  0  0  0  0  0  0  0  0  0  0  0
  134.8740  128.0306  137.8699 N   0  0  0  0  0  0  0  0  0  0  0  0
  133.8661  126.0921  136.3001 H   0  0  0  0  0  0  0  0  0  0  0  0
  135.5235  125.5499  136.5110 H   0  0  0  0  0  0  0  0  0  0  0  0
  134.3002  124.6703  137.4149 H   0  0  0  0  0  0  0  0  0  0  0  0
  133.5989  123.5898  141.3809 H   0  0  0  0  0  0  0  0  0  0  0  0
  131.2543  123.9092  141.4712 H   0  0  0  0  0  0  0  0  0  0  0  0
  131.4662  124.7072  139.8620 H   0  0  0  0  0  0  0  0  0  0  0  0
  131.0417  122.9625  139.9381 H   0  0  0  0  0  0  0  0  0  0  0  0
  134.0130  121.7152  139.3923 H   0  0  0  0  0  0  0  0  0  0  0  0
  133.4614  121.3453  141.0530 H   0  0  0  0  0  0  0  0  0  0  0  0
  132.2591  121.4965  139.7256 H   0  0  0  0  0  0  0  0  0  0  0  0
  136.3531  126.8041  140.9229 H   0  0  0  0  0  0  0  0  0  0  0  0
  136.0217  126.0912  142.9284 H   0  0  0  0  0  0  0  0  0  0  0  0
  134.5772  125.5456  144.8939 H   0  0  0  0  0  0  0  0  0  0  0  0
  132.2047  125.9071  144.7656 H   0  0  0  0  0  0  0  0  0  0  0  0
  132.5961  127.3372  140.7680 H   0  0  0  0  0  0  0  0  0  0  0  0
  135.2628  130.3851  141.0558 H   0  0  0  0  0  0  0  0  0  0  0  0
  134.9382  129.0518  142.1987 H   0  0  0  0  0  0  0  0  0  0  0  0
  137.5630  128.6432  141.1872 H   0  0  0  0  0  0  0  0  0  0  0  0
  137.2256  129.2449  142.8079 H   0  0  0  0  0  0  0  0  0  0  0  0
  136.8621  131.6190  141.7130 H   0  0  0  0  0  0  0  0  0  0  0  0
  137.7922  130.8992  140.3704 H   0  0  0  0  0  0  0  0  0  0  0  0
  140.3847  130.2478  143.3182 H   0  0  0  0  0  0  0  0  0  0  0  0
  139.1732  129.0616  142.8896 H   0  0  0  0  0  0  0  0  0  0  0  0
  138.8172  130.3190  144.1497 H   0  0  0  0  0  0  0  0  0  0  0  0
  139.1852  134.2869  140.1983 H   0  0  0  0  0  0  0  0  0  0  0  0
  140.2280  134.8896  138.0757 H   0  0  0  0  0  0  0  0  0  0  0  0
  142.4352  134.9393  134.6493 H   0  0  0  0  0  0  0  0  0  0  0  0
  141.1350  134.6856  132.5205 H   0  0  0  0  0  0  0  0  0  0  0  0
  139.3613  132.9715  132.3896 H   0  0  0  0  0  0  0  0  0  0  0  0
  138.8385  131.5183  134.2735 H   0  0  0  0  0  0  0  0  0  0  0  0
  140.1437  131.7892  136.3775 H   0  0  0  0  0  0  0  0  0  0  0  0
  142.5703  131.3607  138.2397 H   0  0  0  0  0  0  0  0  0  0  0  0
  141.5173  130.7464  140.3704 H   0  0  0  0  0  0  0  0  0  0  0  0
  134.7194  128.3712  136.8929 H   0  0  0  0  0  0  0  0  0  0  0  0
  1  2  1  0
  2  3  2  0
  3  4  1  0
  4  5  2  0
  4  6  1  0
  6  7  1  0
  7  8  1  0
  7  9  1  0
  3 10  1  0
 10 11  1  0
 11 12  2  0
 12 13  1  0
 13 14  2  0
 14 15  1  0
 15 16  1  0
 15 17  2  0
 10 18  1  0
 18 19  1  0
 19 20  1  0
 20 21  1  0
 21 22  1  0
 22 23  1  0
 22 24  1  0
 24 25  2  0
 24 26  1  0
 26 27  2  0
 27 28  1  0
 28 29  2  0
 29 30  1  0
 30 31  1  0
 31 32  2  0
 32 33  1  0
 33 34  2  0
 34 35  1  0
 35 36  2  0
 29 37  1  0
 37 38  2  0
 18 39  1  0
 39 40  2  0
 39 41  1  0
 41  2  1  0
 17 11  1  0
 38 26  1  0
 36 31  1  0
  1 42  1  0
  1 43  1  0
  1 44  1  0
  7 45  1  0
  8 46  1  0
  8 47  1  0
  8 48  1  0
  9 49  1  0
  9 50  1  0
  9 51  1  0
 10 52  1  1
 12 53  1  0
 13 54  1  0
 14 55  1  0
 17 56  1  0
 19 57  1  0
 19 58  1  0
 20 59  1  0
 20 60  1  0
 21 61  1  0
 21 62  1  0
 23 63  1  0
 23 64  1  0
 23 65  1  0
 27 66  1  0
 28 67  1  0
 32 68  1  0
 33 69  1  0
 34 70  1  0
 35 71  1  0
 36 72  1  0
 37 73  1  0
 38 74  1  0
 41 75  1  0
M  END
>  <docking_score>  (3) 
-7.0359999999999996

$$$$
