
     RDKit          3D

 53 57  0  0  0  0  0  0  0  0999 V2000
  133.3216  121.4798  140.1143 O   0  0  0  0  0  0  0  0  0  0  0  0
  133.9948  122.5137  140.1573 C   0  0  0  0  0  0  0  0  0  0  0  0
  135.3861  122.4576  139.9499 N   0  0  0  0  0  0  0  0  0  0  0  0
  136.1789  121.3277  139.6883 C   0  0  0  0  0  0  0  0  0  0  0  0
  136.0888  120.6748  138.4581 C   0  0  0  0  0  0  0  0  0  0  0  0
  136.8510  119.5840  138.1749 C   0  0  0  0  0  0  0  0  0  0  0  0
  136.7854  118.9266  136.9850 F   0  0  0  0  0  0  0  0  0  0  0  0
  137.7510  119.0702  139.0920 C   0  0  0  0  0  0  0  0  0  0  0  0
  137.8466  119.7023  140.2991 C   0  0  0  0  0  0  0  0  0  0  0  0
  138.7139  119.2341  141.2258 F   0  0  0  0  0  0  0  0  0  0  0  0
  137.0649  120.8185  140.5848 C   0  0  0  0  0  0  0  0  0  0  0  0
  133.3467  123.7738  140.4201 N   0  0  0  0  0  0  0  0  0  0  0  0
  134.1068  124.9946  140.3978 C   0  0  0  0  0  0  0  0  0  0  0  0
  133.4050  126.1702  141.0139 C   0  0  0  0  0  0  0  0  0  0  0  0
  131.9253  126.2074  140.8056 C   0  0  0  0  0  0  0  0  0  0  0  0
  131.3509  125.0572  140.0549 C   0  0  0  0  0  0  0  0  0  0  0  0
  131.9181  123.7790  140.7018 C   0  0  0  0  0  0  0  0  0  0  0  0
  131.1363  126.3836  142.0696 C   0  0  0  0  0  0  0  0  0  0  0  0
  131.2710  126.0999  143.2607 O   0  0  0  0  0  0  0  0  0  0  0  0
  130.1631  127.0424  141.1810 N   0  0  0  0  0  0  0  0  0  0  0  0
  128.7506  126.8948  141.2753 C   0  0  0  0  0  0  0  0  0  0  0  0
  127.9153  127.2145  142.4426 C   0  0  0  0  0  0  0  0  0  0  0  0
  127.9465  128.2054  141.3659 C   0  0  0  0  0  0  0  0  0  0  0  0
  131.3184  127.5791  140.5520 C   0  0  2  0  0  0  0  0  0  0  0  0
  131.3506  128.0928  139.2150 C   0  0  0  0  0  0  0  0  0  0  0  0
  130.2164  128.2898  138.4779 C   0  0  0  0  0  0  0  0  0  0  0  0
  130.2385  128.7756  137.1838 C   0  0  0  0  0  0  0  0  0  0  0  0
  131.4393  129.0815  136.5920 C   0  0  0  0  0  0  0  0  0  0  0  0
  131.5284  129.7001  134.9550 Cl  0  0  0  0  0  0  0  0  0  0  0  0
  132.5915  128.9028  137.2861 C   0  0  0  0  0  0  0  0  0  0  0  0
  132.5472  128.4092  138.5959 C   0  0  0  0  0  0  0  0  0  0  0  0
  135.8992  123.4039  139.9987 H   0  0  0  0  0  0  0  0  0  0  0  0
  135.4051  121.0544  137.7449 H   0  0  0  0  0  0  0  0  0  0  0  0
  138.3702  118.2077  138.9008 H   0  0  0  0  0  0  0  0  0  0  0  0
  137.2141  121.2417  141.5434 H   0  0  0  0  0  0  0  0  0  0  0  0
  135.0260  124.8263  141.0354 H   0  0  0  0  0  0  0  0  0  0  0  0
  134.4597  125.1949  139.3606 H   0  0  0  0  0  0  0  0  0  0  0  0
  133.9272  127.0962  140.6310 H   0  0  0  0  0  0  0  0  0  0  0  0
  133.6010  126.1859  142.1084 H   0  0  0  0  0  0  0  0  0  0  0  0
  130.2548  125.0173  140.2462 H   0  0  0  0  0  0  0  0  0  0  0  0
  131.5888  124.9761  139.0003 H   0  0  0  0  0  0  0  0  0  0  0  0
  131.7855  123.8523  141.7934 H   0  0  0  0  0  0  0  0  0  0  0  0
  131.4345  122.8729  140.2717 H   0  0  0  0  0  0  0  0  0  0  0  0
  128.2933  126.0963  140.5931 H   0  0  0  0  0  0  0  0  0  0  0  0
  128.2884  127.4169  143.4560 H   0  0  0  0  0  0  0  0  0  0  0  0
  126.9332  126.6351  142.5206 H   0  0  0  0  0  0  0  0  0  0  0  0
  128.4942  129.1410  141.5509 H   0  0  0  0  0  0  0  0  0  0  0  0
  127.1242  128.3051  140.6221 H   0  0  0  0  0  0  0  0  0  0  0  0
  131.8420  128.2850  141.2675 H   0  0  0  0  0  0  0  0  0  0  0  0
  129.2180  128.0832  138.8967 H   0  0  0  0  0  0  0  0  0  0  0  0
  129.3164  128.9223  136.6188 H   0  0  0  0  0  0  0  0  0  0  0  0
  133.5413  129.1481  136.8101 H   0  0  0  0  0  0  0  0  0  0  0  0
  133.5135  128.3125  139.0558 H   0  0  0  0  0  0  0  0  0  0  0  0
  1  2  2  0
  2  3  1  0
  3  4  1  0
  4  5  2  0
  5  6  1  0
  6  7  1  0
  6  8  2  0
  8  9  1  0
  9 10  1  0
  9 11  2  0
  2 12  1  0
 12 13  1  0
 13 14  1  0
 14 15  1  0
 15 16  1  0
 16 17  1  0
 15 18  1  0
 18 19  2  0
 18 20  1  0
 20 21  1  0
 21 22  1  0
 22 23  1  0
 20 24  1  0
 24 25  1  0
 25 26  2  0
 26 27  1  0
 27 28  2  0
 28 29  1  0
 28 30  1  0
 30 31  2  0
 11  4  1  0
 17 12  1  0
 23 21  1  0
 31 25  1  0
 24 15  1  0
  3 32  1  0
  5 33  1  0
  8 34  1  0
 11 35  1  0
 13 36  1  0
 13 37  1  0
 14 38  1  0
 14 39  1  0
 16 40  1  0
 16 41  1  0
 17 42  1  0
 17 43  1  0
 21 44  1  0
 22 45  1  0
 22 46  1  0
 23 47  1  0
 23 48  1  0
 24 49  1  1
 26 50  1  0
 27 51  1  0
 30 52  1  0
 31 53  1  0
M  END
>  <docking_score>  (1) 
-8.8460000000000001

$$$$

     RDKit          3D

 53 57  0  0  0  0  0  0  0  0999 V2000
  134.8176  131.0967  138.3472 O   0  0  0  0  0  0  0  0  0  0  0  0
  135.2610  129.9472  138.4234 C   0  0  0  0  0  0  0  0  0  0  0  0
  136.6513  129.7297  138.4667 N   0  0  0  0  0  0  0  0  0  0  0  0
  137.6800  130.6858  138.4294 C   0  0  0  0  0  0  0  0  0  0  0  0
  138.2217  131.1826  139.6156 C   0  0  0  0  0  0  0  0  0  0  0  0
  139.2244  132.1021  139.6088 C   0  0  0  0  0  0  0  0  0  0  0  0
  139.7726  132.6049  140.7486 F   0  0  0  0  0  0  0  0  0  0  0  0
  139.7545  132.5882  138.4265 C   0  0  0  0  0  0  0  0  0  0  0  0
  139.2310  132.1080  137.2598 C   0  0  0  0  0  0  0  0  0  0  0  0
  139.7193  132.5555  136.0802 F   0  0  0  0  0  0  0  0  0  0  0  0
  138.2050  131.1669  137.2714 C   0  0  0  0  0  0  0  0  0  0  0  0
  134.3469  128.8339  138.4679 N   0  0  0  0  0  0  0  0  0  0  0  0
  134.3475  127.8571  137.4122 C   0  0  0  0  0  0  0  0  0  0  0  0
  133.1429  126.9610  137.3995 C   0  0  0  0  0  0  0  0  0  0  0  0
  132.6017  126.6050  138.7466 C   0  0  0  0  0  0  0  0  0  0  0  0
  133.3044  127.2192  139.9066 C   0  0  0  0  0  0  0  0  0  0  0  0
  133.4359  128.7231  139.5985 C   0  0  0  0  0  0  0  0  0  0  0  0
  131.1312  126.8613  138.8996 C   0  0  0  0  0  0  0  0  0  0  0  0
  130.3012  127.6425  138.4326 O   0  0  0  0  0  0  0  0  0  0  0  0
  131.1983  125.7420  139.8553 N   0  0  0  0  0  0  0  0  0  0  0  0
  130.4967  125.6902  141.0927 C   0  0  0  0  0  0  0  0  0  0  0  0
  130.1153  124.4762  141.8299 C   0  0  0  0  0  0  0  0  0  0  0  0
  131.3079  125.1827  142.2997 C   0  0  0  0  0  0  0  0  0  0  0  0
  132.0982  125.1789  138.9112 C   0  0  2  0  0  0  0  0  0  0  0  0
  133.0564  124.1572  139.2117 C   0  0  0  0  0  0  0  0  0  0  0  0
  132.7049  122.9705  139.7922 C   0  0  0  0  0  0  0  0  0  0  0  0
  133.6239  121.9830  140.0947 C   0  0  0  0  0  0  0  0  0  0  0  0
  134.9526  122.1788  139.8085 C   0  0  0  0  0  0  0  0  0  0  0  0
  136.1616  120.9630  140.1696 Cl  0  0  0  0  0  0  0  0  0  0  0  0
  135.3478  123.3414  139.2311 C   0  0  0  0  0  0  0  0  0  0  0  0
  134.4010  124.3293  138.9330 C   0  0  0  0  0  0  0  0  0  0  0  0
  136.9558  128.6986  138.5381 H   0  0  0  0  0  0  0  0  0  0  0  0
  137.8277  130.8217  140.5294 H   0  0  0  0  0  0  0  0  0  0  0  0
  140.5489  133.3170  138.3844 H   0  0  0  0  0  0  0  0  0  0  0  0
  137.8697  130.8517  136.3183 H   0  0  0  0  0  0  0  0  0  0  0  0
  134.3099  128.4240  136.4340 H   0  0  0  0  0  0  0  0  0  0  0  0
  135.3077  127.2928  137.4272 H   0  0  0  0  0  0  0  0  0  0  0  0
  133.4193  126.0557  136.7825 H   0  0  0  0  0  0  0  0  0  0  0  0
  132.3288  127.4440  136.8160 H   0  0  0  0  0  0  0  0  0  0  0  0
  132.6394  127.1627  140.7978 H   0  0  0  0  0  0  0  0  0  0  0  0
  134.3115  126.8800  140.1211 H   0  0  0  0  0  0  0  0  0  0  0  0
  132.4506  129.1015  139.2814 H   0  0  0  0  0  0  0  0  0  0  0  0
  133.8418  129.2707  140.4790 H   0  0  0  0  0  0  0  0  0  0  0  0
  129.8194  126.5876  141.3115 H   0  0  0  0  0  0  0  0  0  0  0  0
  130.1419  123.4535  141.4293 H   0  0  0  0  0  0  0  0  0  0  0  0
  129.2065  124.5798  142.5151 H   0  0  0  0  0  0  0  0  0  0  0  0
  132.2846  124.7137  142.1111 H   0  0  0  0  0  0  0  0  0  0  0  0
  131.2942  125.8509  143.1901 H   0  0  0  0  0  0  0  0  0  0  0  0
  131.5380  124.9376  137.9560 H   0  0  0  0  0  0  0  0  0  0  0  0
  131.6543  122.7390  140.0316 H   0  0  0  0  0  0  0  0  0  0  0  0
  133.3142  121.0451  140.5590 H   0  0  0  0  0  0  0  0  0  0  0  0
  136.4043  123.4900  139.0063 H   0  0  0  0  0  0  0  0  0  0  0  0
  134.8188  125.2054  138.4723 H   0  0  0  0  0  0  0  0  0  0  0  0
  1  2  2  0
  2  3  1  0
  3  4  1  0
  4  5  2  0
  5  6  1  0
  6  7  1  0
  6  8  2  0
  8  9  1  0
  9 10  1  0
  9 11  2  0
  2 12  1  0
 12 13  1  0
 13 14  1  0
 14 15  1  0
 15 16  1  0
 16 17  1  0
 15 18  1  0
 18 19  2  0
 18 20  1  0
 20 21  1  0
 21 22  1  0
 22 23  1  0
 20 24  1  0
 24 25  1  0
 25 26  2  0
 26 27  1  0
 27 28  2  0
 28 29  1  0
 28 30  1  0
 30 31  2  0
 11  4  1  0
 17 12  1  0
 23 21  1  0
 31 25  1  0
 24 15  1  0
  3 32  1  0
  5 33  1  0
  8 34  1  0
 11 35  1  0
 13 36  1  0
 13 37  1  0
 14 38  1  0
 14 39  1  0
 16 40  1  0
 16 41  1  0
 17 42  1  0
 17 43  1  0
 21 44  1  0
 22 45  1  0
 22 46  1  0
 23 47  1  0
 23 48  1  0
 24 49  1  6
 26 50  1  0
 27 51  1  0
 30 52  1  0
 31 53  1  0
M  END
>  <docking_score>  (2) 
-8.0630000000000006

$$$$

     RDKit          3D

 53 57  0  0  0  0  0  0  0  0999 V2000
  136.6105  131.5004  136.7259 O   0  0  0  0  0  0  0  0  0  0  0  0
  135.8220  132.2567  136.1513 C   0  0  0  0  0  0  0  0  0  0  0  0
  136.2926  133.1557  135.1754 N   0  0  0  0  0  0  0  0  0  0  0  0
  137.6121  133.3384  134.7291 C   0  0  0  0  0  0  0  0  0  0  0  0
  137.9575  133.0341  133.4116 C   0  0  0  0  0  0  0  0  0  0  0  0
  139.2253  133.2097  132.9505 C   0  0  0  0  0  0  0  0  0  0  0  0
  139.5921  132.9221  131.6718 F   0  0  0  0  0  0  0  0  0  0  0  0
  140.2321  133.6979  133.7649 C   0  0  0  0  0  0  0  0  0  0  0  0
  139.9041  133.9988  135.0563 C   0  0  0  0  0  0  0  0  0  0  0  0
  140.8571  134.4789  135.8878 F   0  0  0  0  0  0  0  0  0  0  0  0
  138.6053  133.8177  135.5240 C   0  0  0  0  0  0  0  0  0  0  0  0
  134.4211  132.2116  136.4864 N   0  0  0  0  0  0  0  0  0  0  0  0
  133.5459  131.2943  135.8073 C   0  0  0  0  0  0  0  0  0  0  0  0
  132.0843  131.5806  135.9966 C   0  0  0  0  0  0  0  0  0  0  0  0
  131.7103  132.1126  137.3425 C   0  0  0  0  0  0  0  0  0  0  0  0
  132.8398  132.3223  138.2894 C   0  0  0  0  0  0  0  0  0  0  0  0
  133.9215  133.1058  137.5213 C   0  0  0  0  0  0  0  0  0  0  0  0
  130.8976  133.3730  137.2950 C   0  0  0  0  0  0  0  0  0  0  0  0
  130.7799  134.3392  136.5401 O   0  0  0  0  0  0  0  0  0  0  0  0
  130.3413  132.8722  138.5640 N   0  0  0  0  0  0  0  0  0  0  0  0
  130.0476  133.6836  139.6960 C   0  0  0  0  0  0  0  0  0  0  0  0
  129.0396  134.7520  139.7666 C   0  0  0  0  0  0  0  0  0  0  0  0
  128.6664  133.4578  140.3394 C   0  0  0  0  0  0  0  0  0  0  0  0
  130.3983  131.6060  137.9225 C   0  0  2  0  0  0  0  0  0  0  0  0
  130.4065  130.3479  138.6077 C   0  0  0  0  0  0  0  0  0  0  0  0
  130.2532  129.1567  137.9548 C   0  0  0  0  0  0  0  0  0  0  0  0
  130.2500  127.9386  138.6089 C   0  0  0  0  0  0  0  0  0  0  0  0
  130.4067  127.8978  139.9725 C   0  0  0  0  0  0  0  0  0  0  0  0
  130.4105  126.3835  140.8542 Cl  0  0  0  0  0  0  0  0  0  0  0  0
  130.5632  129.0556  140.6625 C   0  0  0  0  0  0  0  0  0  0  0  0
  130.5632  130.2790  139.9810 C   0  0  0  0  0  0  0  0  0  0  0  0
  135.5402  133.7768  134.7180 H   0  0  0  0  0  0  0  0  0  0  0  0
  137.1995  132.6593  132.7748 H   0  0  0  0  0  0  0  0  0  0  0  0
  141.2473  133.8491  133.4325 H   0  0  0  0  0  0  0  0  0  0  0  0
  138.4479  134.0840  136.5362 H   0  0  0  0  0  0  0  0  0  0  0  0
  133.7337  131.4141  134.6982 H   0  0  0  0  0  0  0  0  0  0  0  0
  133.8214  130.2489  136.0751 H   0  0  0  0  0  0  0  0  0  0  0  0
  131.5312  130.6325  135.7283 H   0  0  0  0  0  0  0  0  0  0  0  0
  131.7484  132.3123  135.2295 H   0  0  0  0  0  0  0  0  0  0  0  0
  132.5042  133.0089  139.0991 H   0  0  0  0  0  0  0  0  0  0  0  0
  133.3414  131.4425  138.6761 H   0  0  0  0  0  0  0  0  0  0  0  0
  133.4433  133.9669  137.0269 H   0  0  0  0  0  0  0  0  0  0  0  0
  134.7471  133.4085  138.2043 H   0  0  0  0  0  0  0  0  0  0  0  0
  130.9081  133.8196  140.4397 H   0  0  0  0  0  0  0  0  0  0  0  0
  128.5240  135.1985  138.9053 H   0  0  0  0  0  0  0  0  0  0  0  0
  129.2395  135.5691  140.5403 H   0  0  0  0  0  0  0  0  0  0  0  0
  127.9293  132.8524  139.7921 H   0  0  0  0  0  0  0  0  0  0  0  0
  128.6843  133.2624  141.4353 H   0  0  0  0  0  0  0  0  0  0  0  0
  129.6652  131.5893  137.0584 H   0  0  0  0  0  0  0  0  0  0  0  0
  130.1415  129.1142  136.8592 H   0  0  0  0  0  0  0  0  0  0  0  0
  130.1248  127.0029  138.0612 H   0  0  0  0  0  0  0  0  0  0  0  0
  130.6875  129.0156  141.7449 H   0  0  0  0  0  0  0  0  0  0  0  0
  130.7007  131.1316  140.6204 H   0  0  0  0  0  0  0  0  0  0  0  0
  1  2  2  0
  2  3  1  0
  3  4  1  0
  4  5  2  0
  5  6  1  0
  6  7  1  0
  6  8  2  0
  8  9  1  0
  9 10  1  0
  9 11  2  0
  2 12  1  0
 12 13  1  0
 13 14  1  0
 14 15  1  0
 15 16  1  0
 16 17  1  0
 15 18  1  0
 18 19  2  0
 18 20  1  0
 20 21  1  0
 21 22  1  0
 22 23  1  0
 20 24  1  0
 24 25  1  0
 25 26  2  0
 26 27  1  0
 27 28  2  0
 28 29  1  0
 28 30  1  0
 30 31  2  0
 11  4  1  0
 17 12  1  0
 23 21  1  0
 31 25  1  0
 24 15  1  0
  3 32  1  0
  5 33  1  0
  8 34  1  0
 11 35  1  0
 13 36  1  0
 13 37  1  0
 14 38  1  0
 14 39  1  0
 16 40  1  0
 16 41  1  0
 17 42  1  0
 17 43  1  0
 21 44  1  0
 22 45  1  0
 22 46  1  0
 23 47  1  0
 23 48  1  0
 24 49  1  6
 26 50  1  0
 27 51  1  0
 30 52  1  0
 31 53  1  0
M  END
>  <docking_score>  (3) 
-8.0489999999999995

$$$$
