
     RDKit          3D

 75 78  0  0  0  0  0  0  0  0999 V2000
  128.3017  133.1447  139.2929 C   0  0  0  0  0  0  0  0  0  0  0  0
  129.0164  131.8770  139.6251 C   0  0  0  0  0  0  0  0  0  0  0  0
  129.7729  131.2783  138.7296 C   0  0  0  0  0  0  0  0  0  0  0  0
  129.9225  131.8425  137.4045 C   0  0  0  0  0  0  0  0  0  0  0  0
  129.5437  131.2061  136.3984 O   0  0  0  0  0  0  0  0  0  0  0  0
  130.4763  133.0878  137.1413 O   0  0  0  0  0  0  0  0  0  0  0  0
  131.8305  133.3344  136.9236 C   0  0  0  0  0  0  0  0  0  0  0  0
  132.4064  134.3926  137.8317 C   0  0  0  0  0  0  0  0  0  0  0  0
  131.9826  133.8708  135.4974 C   0  0  0  0  0  0  0  0  0  0  0  0
  130.5190  130.0028  139.0167 C   0  0  1  0  0  0  0  0  0  0  0  0
  131.9874  130.3296  138.9449 C   0  0  0  0  0  0  0  0  0  0  0  0
  132.5709  131.2399  139.7832 C   0  0  0  0  0  0  0  0  0  0  0  0
  133.9290  131.4566  139.6357 C   0  0  0  0  0  0  0  0  0  0  0  0
  134.6667  130.7847  138.6840 C   0  0  0  0  0  0  0  0  0  0  0  0
  134.0814  129.8677  137.8385 C   0  0  0  0  0  0  0  0  0  0  0  0
  135.0445  129.0315  136.6411 Cl  0  0  0  0  0  0  0  0  0  0  0  0
  132.7160  129.6442  137.9808 C   0  0  0  0  0  0  0  0  0  0  0  0
  130.2904  129.5100  140.3432 N   0  0  0  0  0  0  0  0  0  0  0  0
  130.9226  128.2724  140.7486 C   0  0  0  0  0  0  0  0  0  0  0  0
  130.3133  127.1357  139.9619 C   0  0  0  0  0  0  0  0  0  0  0  0
  130.4234  125.8596  140.7645 C   0  0  0  0  0  0  0  0  0  0  0  0
  131.7919  125.5091  140.9258 N   0  0  0  0  0  0  0  0  0  0  0  0
  132.3266  125.8785  142.2957 C   0  0  0  0  0  0  0  0  0  0  0  0
  132.6877  124.9185  140.0800 C   0  0  0  0  0  0  0  0  0  0  0  0
  132.9288  125.5819  138.9657 O   0  0  0  0  0  0  0  0  0  0  0  0
  133.4279  123.6921  140.1794 C   0  0  0  0  0  0  0  0  0  0  0  0
  134.8321  123.7222  140.3227 C   0  0  0  0  0  0  0  0  0  0  0  0
  135.5906  122.5834  140.3957 C   0  0  0  0  0  0  0  0  0  0  0  0
  134.9708  121.3565  140.3279 C   0  0  0  0  0  0  0  0  0  0  0  0
  135.7737  120.2027  140.4056 O   0  0  0  0  0  0  0  0  0  0  0  0
  136.0766  119.4726  139.2774 C   0  0  0  0  0  0  0  0  0  0  0  0
  136.1758  118.1116  139.3548 C   0  0  0  0  0  0  0  0  0  0  0  0
  136.4785  117.3521  138.2393 C   0  0  0  0  0  0  0  0  0  0  0  0
  136.6816  117.9775  137.0393 C   0  0  0  0  0  0  0  0  0  0  0  0
  136.5909  119.3364  136.9225 C   0  0  0  0  0  0  0  0  0  0  0  0
  136.2832  120.0889  138.0640 C   0  0  0  0  0  0  0  0  0  0  0  0
  133.6319  121.3120  140.1908 C   0  0  0  0  0  0  0  0  0  0  0  0
  132.8486  122.4608  140.1149 C   0  0  0  0  0  0  0  0  0  0  0  0
  129.4748  130.1663  141.2941 C   0  0  0  0  0  0  0  0  0  0  0  0
  129.3214  129.6853  142.4662 O   0  0  0  0  0  0  0  0  0  0  0  0
  128.8282  131.3625  140.9377 N   0  0  0  0  0  0  0  0  0  0  0  0
  128.1241  133.7869  140.1780 H   0  0  0  0  0  0  0  0  0  0  0  0
  127.3975  132.9712  138.6688 H   0  0  0  0  0  0  0  0  0  0  0  0
  128.9542  133.7885  138.6284 H   0  0  0  0  0  0  0  0  0  0  0  0
  132.4721  132.4321  136.9785 H   0  0  0  0  0  0  0  0  0  0  0  0
  132.1354  135.4208  137.5094 H   0  0  0  0  0  0  0  0  0  0  0  0
  132.1010  134.2903  138.8767 H   0  0  0  0  0  0  0  0  0  0  0  0
  133.5170  134.3321  137.7394 H   0  0  0  0  0  0  0  0  0  0  0  0
  133.0528  133.9790  135.2203 H   0  0  0  0  0  0  0  0  0  0  0  0
  131.4919  134.8580  135.3924 H   0  0  0  0  0  0  0  0  0  0  0  0
  131.5617  133.1043  134.8262 H   0  0  0  0  0  0  0  0  0  0  0  0
  130.2862  129.2338  138.2399 H   0  0  0  0  0  0  0  0  0  0  0  0
  131.9649  131.7524  140.5121 H   0  0  0  0  0  0  0  0  0  0  0  0
  134.3701  132.1859  140.3153 H   0  0  0  0  0  0  0  0  0  0  0  0
  135.7203  131.0035  138.6256 H   0  0  0  0  0  0  0  0  0  0  0  0
  132.2742  128.9248  137.3125 H   0  0  0  0  0  0  0  0  0  0  0  0
  131.9873  128.3231  140.4602 H   0  0  0  0  0  0  0  0  0  0  0  0
  130.8284  128.0968  141.8419 H   0  0  0  0  0  0  0  0  0  0  0  0
  130.9499  127.0414  139.0336 H   0  0  0  0  0  0  0  0  0  0  0  0
  129.2892  127.3288  139.6306 H   0  0  0  0  0  0  0  0  0  0  0  0
  129.9826  126.1467  141.7939 H   0  0  0  0  0  0  0  0  0  0  0  0
  129.7303  125.1082  140.4165 H   0  0  0  0  0  0  0  0  0  0  0  0
  132.4909  126.9663  142.3325 H   0  0  0  0  0  0  0  0  0  0  0  0
  131.6260  125.5514  143.0648 H   0  0  0  0  0  0  0  0  0  0  0  0
  133.2975  125.3706  142.4550 H   0  0  0  0  0  0  0  0  0  0  0  0
  135.3188  124.6718  140.3771 H   0  0  0  0  0  0  0  0  0  0  0  0
  136.6899  122.6324  140.5081 H   0  0  0  0  0  0  0  0  0  0  0  0
  136.0196  117.5953  140.2914 H   0  0  0  0  0  0  0  0  0  0  0  0
  136.5640  116.2756  138.2679 H   0  0  0  0  0  0  0  0  0  0  0  0
  136.9220  117.4060  136.1403 H   0  0  0  0  0  0  0  0  0  0  0  0
  136.7427  119.8709  135.9988 H   0  0  0  0  0  0  0  0  0  0  0  0
  136.1991  121.1671  138.0287 H   0  0  0  0  0  0  0  0  0  0  0  0
  133.1514  120.3310  140.1379 H   0  0  0  0  0  0  0  0  0  0  0  0
  131.7918  122.3159  139.9903 H   0  0  0  0  0  0  0  0  0  0  0  0
  128.2124  131.8654  141.6426 H   0  0  0  0  0  0  0  0  0  0  0  0
  1  2  1  0
  2  3  2  0
  3  4  1  0
  4  5  2  0
  4  6  1  0
  6  7  1  0
  7  8  1  0
  7  9  1  0
  3 10  1  0
 10 11  1  0
 11 12  2  0
 12 13  1  0
 13 14  2  0
 14 15  1  0
 15 16  1  0
 15 17  2  0
 10 18  1  0
 18 19  1  0
 19 20  1  0
 20 21  1  0
 21 22  1  0
 22 23  1  0
 22 24  1  0
 24 25  2  0
 24 26  1  0
 26 27  2  0
 27 28  1  0
 28 29  2  0
 29 30  1  0
 30 31  1  0
 31 32  2  0
 32 33  1  0
 33 34  2  0
 34 35  1  0
 35 36  2  0
 29 37  1  0
 37 38  2  0
 18 39  1  0
 39 40  2  0
 39 41  1  0
 41  2  1  0
 17 11  1  0
 38 26  1  0
 36 31  1  0
  1 42  1  0
  1 43  1  0
  1 44  1  0
  7 45  1  0
  8 46  1  0
  8 47  1  0
  8 48  1  0
  9 49  1  0
  9 50  1  0
  9 51  1  0
 10 52  1  6
 12 53  1  0
 13 54  1  0
 14 55  1  0
 17 56  1  0
 19 57  1  0
 19 58  1  0
 20 59  1  0
 20 60  1  0
 21 61  1  0
 21 62  1  0
 23 63  1  0
 23 64  1  0
 23 65  1  0
 27 66  1  0
 28 67  1  0
 32 68  1  0
 33 69  1  0
 34 70  1  0
 35 71  1  0
 36 72  1  0
 37 73  1  0
 38 74  1  0
 41 75  1  0
M  END
>  <docking_score>  (1) 
-7.343

$$$$

     RDKit          3D

 75 78  0  0  0  0  0  0  0  0999 V2000
  132.8845  124.6092  140.7320 C   0  0  0  0  0  0  0  0  0  0  0  0
  132.7314  125.9717  141.3224 C   0  0  0  0  0  0  0  0  0  0  0  0
  132.2217  126.9570  140.6139 C   0  0  0  0  0  0  0  0  0  0  0  0
  131.8016  126.7328  139.2465 C   0  0  0  0  0  0  0  0  0  0  0  0
  130.7230  126.1516  139.0023 O   0  0  0  0  0  0  0  0  0  0  0  0
  132.5265  127.1255  138.1300 O   0  0  0  0  0  0  0  0  0  0  0  0
  133.4004  126.3108  137.4126 C   0  0  0  0  0  0  0  0  0  0  0  0
  134.7955  126.2682  137.9850 C   0  0  0  0  0  0  0  0  0  0  0  0
  133.5369  126.8997  136.0057 C   0  0  0  0  0  0  0  0  0  0  0  0
  132.0405  128.3462  141.1647 C   0  0  1  0  0  0  0  0  0  0  0  0
  130.5580  128.6077  141.2123 C   0  0  0  0  0  0  0  0  0  0  0  0
  129.9982  129.7212  140.6480 C   0  0  0  0  0  0  0  0  0  0  0  0
  128.6249  129.8565  140.7428 C   0  0  0  0  0  0  0  0  0  0  0  0
  127.8498  128.9101  141.3790 C   0  0  0  0  0  0  0  0  0  0  0  0
  128.4111  127.7880  141.9482 C   0  0  0  0  0  0  0  0  0  0  0  0
  127.4006  126.6053  142.7487 Cl  0  0  0  0  0  0  0  0  0  0  0  0
  129.7916  127.6447  141.8570 C   0  0  0  0  0  0  0  0  0  0  0  0
  132.5059  128.4757  142.5143 N   0  0  0  0  0  0  0  0  0  0  0  0
  132.4207  129.7670  143.1631 C   0  0  0  0  0  0  0  0  0  0  0  0
  131.5170  129.6463  144.3676 C   0  0  0  0  0  0  0  0  0  0  0  0
  131.3243  131.0126  144.9844 C   0  0  0  0  0  0  0  0  0  0  0  0
  130.3068  131.7174  144.2846 N   0  0  0  0  0  0  0  0  0  0  0  0
  128.9616  131.0221  144.3636 C   0  0  0  0  0  0  0  0  0  0  0  0
  130.3315  132.8792  143.5661 C   0  0  0  0  0  0  0  0  0  0  0  0
  130.3741  133.9835  144.2863 O   0  0  0  0  0  0  0  0  0  0  0  0
  130.3209  133.1266  142.1517 C   0  0  0  0  0  0  0  0  0  0  0  0
  131.5057  132.9798  141.3981 C   0  0  0  0  0  0  0  0  0  0  0  0
  131.5589  133.2280  140.0516 C   0  0  0  0  0  0  0  0  0  0  0  0
  130.4194  133.6370  139.3971 C   0  0  0  0  0  0  0  0  0  0  0  0
  130.5019  133.8848  138.0137 O   0  0  0  0  0  0  0  0  0  0  0  0
  130.7735  132.8667  137.1263 C   0  0  0  0  0  0  0  0  0  0  0  0
  131.7374  133.0359  136.1720 C   0  0  0  0  0  0  0  0  0  0  0  0
  132.0321  132.0321  135.2675 C   0  0  0  0  0  0  0  0  0  0  0  0
  131.3448  130.8507  135.3321 C   0  0  0  0  0  0  0  0  0  0  0  0
  130.3742  130.6443  136.2722 C   0  0  0  0  0  0  0  0  0  0  0  0
  130.0899  131.6733  137.1800 C   0  0  0  0  0  0  0  0  0  0  0  0
  129.2817  133.7818  140.1029 C   0  0  0  0  0  0  0  0  0  0  0  0
  129.2129  133.5336  141.4713 C   0  0  0  0  0  0  0  0  0  0  0  0
  133.0505  127.4060  143.2623 C   0  0  0  0  0  0  0  0  0  0  0  0
  133.4345  127.5801  144.4668 O   0  0  0  0  0  0  0  0  0  0  0  0
  133.1673  126.1384  142.6660 N   0  0  0  0  0  0  0  0  0  0  0  0
  133.0913  124.6292  139.6438 H   0  0  0  0  0  0  0  0  0  0  0  0
  132.0585  123.9243  141.0249 H   0  0  0  0  0  0  0  0  0  0  0  0
  133.8022  124.1064  141.1641 H   0  0  0  0  0  0  0  0  0  0  0  0
  133.0421  125.2710  137.2730 H   0  0  0  0  0  0  0  0  0  0  0  0
  135.1891  125.2323  138.0657 H   0  0  0  0  0  0  0  0  0  0  0  0
  135.5249  126.8474  137.4119 H   0  0  0  0  0  0  0  0  0  0  0  0
  134.7296  126.6467  139.0330 H   0  0  0  0  0  0  0  0  0  0  0  0
  134.5974  127.1273  135.7660 H   0  0  0  0  0  0  0  0  0  0  0  0
  132.9479  127.8326  135.9093 H   0  0  0  0  0  0  0  0  0  0  0  0
  133.2193  126.1123  135.3026 H   0  0  0  0  0  0  0  0  0  0  0  0
  132.5137  129.0975  140.4862 H   0  0  0  0  0  0  0  0  0  0  0  0
  130.6328  130.4448  140.1634 H   0  0  0  0  0  0  0  0  0  0  0  0
  128.2032  130.7517  140.2853 H   0  0  0  0  0  0  0  0  0  0  0  0
  126.7863  129.0807  141.4148 H   0  0  0  0  0  0  0  0  0  0  0  0
  130.2143  126.7625  142.3068 H   0  0  0  0  0  0  0  0  0  0  0  0
  133.4248  130.0239  143.5441 H   0  0  0  0  0  0  0  0  0  0  0  0
  132.0588  130.5568  142.4700 H   0  0  0  0  0  0  0  0  0  0  0  0
  132.0783  128.9906  145.0963 H   0  0  0  0  0  0  0  0  0  0  0  0
  130.5657  129.1500  144.1564 H   0  0  0  0  0  0  0  0  0  0  0  0
  130.9547  130.7785  146.0544 H   0  0  0  0  0  0  0  0  0  0  0  0
  132.2680  131.5047  145.1672 H   0  0  0  0  0  0  0  0  0  0  0  0
  128.4695  131.0860  143.3811 H   0  0  0  0  0  0  0  0  0  0  0  0
  129.1003  129.9868  144.6773 H   0  0  0  0  0  0  0  0  0  0  0  0
  128.3284  131.5414  145.1087 H   0  0  0  0  0  0  0  0  0  0  0  0
  132.3932  132.6613  141.9005 H   0  0  0  0  0  0  0  0  0  0  0  0
  132.4993  133.1056  139.4823 H   0  0  0  0  0  0  0  0  0  0  0  0
  132.2934  133.9601  136.1015 H   0  0  0  0  0  0  0  0  0  0  0  0
  132.7875  132.1350  134.5023 H   0  0  0  0  0  0  0  0  0  0  0  0
  131.5542  130.0388  134.6324 H   0  0  0  0  0  0  0  0  0  0  0  0
  129.8082  129.7310  136.3600 H   0  0  0  0  0  0  0  0  0  0  0  0
  129.3318  131.5638  137.9444 H   0  0  0  0  0  0  0  0  0  0  0  0
  128.3831  134.1075  139.5712 H   0  0  0  0  0  0  0  0  0  0  0  0
  128.2616  133.6945  141.9429 H   0  0  0  0  0  0  0  0  0  0  0  0
  133.5750  125.3264  143.2169 H   0  0  0  0  0  0  0  0  0  0  0  0
  1  2  1  0
  2  3  2  0
  3  4  1  0
  4  5  2  0
  4  6  1  0
  6  7  1  0
  7  8  1  0
  7  9  1  0
  3 10  1  0
 10 11  1  0
 11 12  2  0
 12 13  1  0
 13 14  2  0
 14 15  1  0
 15 16  1  0
 15 17  2  0
 10 18  1  0
 18 19  1  0
 19 20  1  0
 20 21  1  0
 21 22  1  0
 22 23  1  0
 22 24  1  0
 24 25  2  0
 24 26  1  0
 26 27  2  0
 27 28  1  0
 28 29  2  0
 29 30  1  0
 30 31  1  0
 31 32  2  0
 32 33  1  0
 33 34  2  0
 34 35  1  0
 35 36  2  0
 29 37  1  0
 37 38  2  0
 18 39  1  0
 39 40  2  0
 39 41  1  0
 41  2  1  0
 17 11  1  0
 38 26  1  0
 36 31  1  0
  1 42  1  0
  1 43  1  0
  1 44  1  0
  7 45  1  0
  8 46  1  0
  8 47  1  0
  8 48  1  0
  9 49  1  0
  9 50  1  0
  9 51  1  0
 10 52  1  6
 12 53  1  0
 13 54  1  0
 14 55  1  0
 17 56  1  0
 19 57  1  0
 19 58  1  0
 20 59  1  0
 20 60  1  0
 21 61  1  0
 21 62  1  0
 23 63  1  0
 23 64  1  0
 23 65  1  0
 27 66  1  0
 28 67  1  0
 32 68  1  0
 33 69  1  0
 34 70  1  0
 35 71  1  0
 36 72  1  0
 37 73  1  0
 38 74  1  0
 41 75  1  0
M  END
>  <docking_score>  (2) 
-7.0289999999999999

$$$$

     RDKit          3D

 75 78  0  0  0  0  0  0  0  0999 V2000
  133.0983  126.0669  145.1675 C   0  0  0  0  0  0  0  0  0  0  0  0
  133.3094  127.4190  144.5712 C   0  0  0  0  0  0  0  0  0  0  0  0
  132.7247  127.7527  143.4401 C   0  0  0  0  0  0  0  0  0  0  0  0
  131.8659  126.8092  142.7552 C   0  0  0  0  0  0  0  0  0  0  0  0
  132.3021  126.1337  141.7991 O   0  0  0  0  0  0  0  0  0  0  0  0
  130.5371  126.5784  143.0833 O   0  0  0  0  0  0  0  0  0  0  0  0
  129.5030  126.4001  142.1664 C   0  0  0  0  0  0  0  0  0  0  0  0
  128.3302  127.3223  142.3901 C   0  0  0  0  0  0  0  0  0  0  0  0
  128.9641  124.9777  142.3433 C   0  0  0  0  0  0  0  0  0  0  0  0
  132.9000  129.1045  142.8014 C   0  0  1  0  0  0  0  0  0  0  0  0
  131.5540  129.7795  142.8304 C   0  0  0  0  0  0  0  0  0  0  0  0
  130.8851  130.0166  144.0001 C   0  0  0  0  0  0  0  0  0  0  0  0
  129.6594  130.6514  143.9109 C   0  0  0  0  0  0  0  0  0  0  0  0
  129.1311  131.0306  142.6951 C   0  0  0  0  0  0  0  0  0  0  0  0
  129.8026  130.7928  141.5157 C   0  0  0  0  0  0  0  0  0  0  0  0
  129.1055  131.2860  139.9888 Cl  0  0  0  0  0  0  0  0  0  0  0  0
  131.0358  130.1549  141.5971 C   0  0  0  0  0  0  0  0  0  0  0  0
  133.7840  129.9587  143.5385 N   0  0  0  0  0  0  0  0  0  0  0  0
  134.0690  131.2817  143.0246 C   0  0  0  0  0  0  0  0  0  0  0  0
  135.2993  131.2085  142.1511 C   0  0  0  0  0  0  0  0  0  0  0  0
  135.2054  132.2601  141.0696 C   0  0  0  0  0  0  0  0  0  0  0  0
  136.4470  132.9433  140.9535 N   0  0  0  0  0  0  0  0  0  0  0  0
  136.3154  134.4316  141.2116 C   0  0  0  0  0  0  0  0  0  0  0  0
  137.7047  132.5037  140.6509 C   0  0  0  0  0  0  0  0  0  0  0  0
  138.4824  132.2695  141.6903 O   0  0  0  0  0  0  0  0  0  0  0  0
  138.3478  132.2440  139.3936 C   0  0  0  0  0  0  0  0  0  0  0  0
  137.6291  131.6324  138.3436 C   0  0  0  0  0  0  0  0  0  0  0  0
  138.1996  131.3376  137.1331 C   0  0  0  0  0  0  0  0  0  0  0  0
  139.5241  131.6451  136.9207 C   0  0  0  0  0  0  0  0  0  0  0  0
  140.0850  131.3318  135.6680 O   0  0  0  0  0  0  0  0  0  0  0  0
  140.1676  132.2793  134.6715 C   0  0  0  0  0  0  0  0  0  0  0  0
  139.2318  132.3016  133.6754 C   0  0  0  0  0  0  0  0  0  0  0  0
  139.2886  133.2407  132.6617 C   0  0  0  0  0  0  0  0  0  0  0  0
  140.3006  134.1617  132.6593 C   0  0  0  0  0  0  0  0  0  0  0  0
  141.2546  134.1712  133.6381 C   0  0  0  0  0  0  0  0  0  0  0  0
  141.1801  133.2117  134.6569 C   0  0  0  0  0  0  0  0  0  0  0  0
  140.2226  132.2285  137.9132 C   0  0  0  0  0  0  0  0  0  0  0  0
  139.6563  132.5334  139.1483 C   0  0  0  0  0  0  0  0  0  0  0  0
  134.4039  129.5849  144.7536 C   0  0  0  0  0  0  0  0  0  0  0  0
  135.1706  130.3960  145.3724 O   0  0  0  0  0  0  0  0  0  0  0  0
  134.1683  128.3032  145.2807 N   0  0  0  0  0  0  0  0  0  0  0  0
  134.0334  125.6096  145.5464 H   0  0  0  0  0  0  0  0  0  0  0  0
  132.5016  125.4001  144.5068 H   0  0  0  0  0  0  0  0  0  0  0  0
  132.4547  126.1545  146.0948 H   0  0  0  0  0  0  0  0  0  0  0  0
  129.8169  126.4759  141.1058 H   0  0  0  0  0  0  0  0  0  0  0  0
  128.6171  128.3941  142.3339 H   0  0  0  0  0  0  0  0  0  0  0  0
  127.5089  127.1700  141.6842 H   0  0  0  0  0  0  0  0  0  0  0  0
  127.9825  127.1591  143.4381 H   0  0  0  0  0  0  0  0  0  0  0  0
  128.2930  124.9087  143.2259 H   0  0  0  0  0  0  0  0  0  0  0  0
  129.7928  124.2551  142.4760 H   0  0  0  0  0  0  0  0  0  0  0  0
  128.3411  124.7647  141.4592 H   0  0  0  0  0  0  0  0  0  0  0  0
  133.2200  128.9920  141.7365 H   0  0  0  0  0  0  0  0  0  0  0  0
  131.3230  129.7021  144.9331 H   0  0  0  0  0  0  0  0  0  0  0  0
  129.1468  130.8290  144.8564 H   0  0  0  0  0  0  0  0  0  0  0  0
  128.1714  131.5209  142.7010 H   0  0  0  0  0  0  0  0  0  0  0  0
  131.5474  129.9767  140.6666 H   0  0  0  0  0  0  0  0  0  0  0  0
  133.2318  131.5804  142.3694 H   0  0  0  0  0  0  0  0  0  0  0  0
  134.2023  132.0243  143.8407 H   0  0  0  0  0  0  0  0  0  0  0  0
  135.2641  130.1858  141.6726 H   0  0  0  0  0  0  0  0  0  0  0  0
  136.2387  131.2702  142.7076 H   0  0  0  0  0  0  0  0  0  0  0  0
  135.0204  131.6458  140.1080 H   0  0  0  0  0  0  0  0  0  0  0  0
  134.2976  132.8391  141.1535 H   0  0  0  0  0  0  0  0  0  0  0  0
  135.5644  134.8475  140.5226 H   0  0  0  0  0  0  0  0  0  0  0  0
  136.0429  134.6018  142.2538 H   0  0  0  0  0  0  0  0  0  0  0  0
  137.2875  134.9219  141.0100 H   0  0  0  0  0  0  0  0  0  0  0  0
  136.6001  131.3924  138.5022 H   0  0  0  0  0  0  0  0  0  0  0  0
  137.6158  130.8582  136.3253 H   0  0  0  0  0  0  0  0  0  0  0  0
  138.4234  131.5844  133.6563 H   0  0  0  0  0  0  0  0  0  0  0  0
  138.5648  133.2843  131.8611 H   0  0  0  0  0  0  0  0  0  0  0  0
  140.3730  134.9161  131.8730 H   0  0  0  0  0  0  0  0  0  0  0  0
  142.0685  134.8769  133.6762 H   0  0  0  0  0  0  0  0  0  0  0  0
  141.9084  133.1733  135.4562 H   0  0  0  0  0  0  0  0  0  0  0  0
  141.2743  132.4677  137.7320 H   0  0  0  0  0  0  0  0  0  0  0  0
  140.3038  132.9835  139.8772 H   0  0  0  0  0  0  0  0  0  0  0  0
  134.6281  128.0098  146.1926 H   0  0  0  0  0  0  0  0  0  0  0  0
  1  2  1  0
  2  3  2  0
  3  4  1  0
  4  5  2  0
  4  6  1  0
  6  7  1  0
  7  8  1  0
  7  9  1  0
  3 10  1  0
 10 11  1  0
 11 12  2  0
 12 13  1  0
 13 14  2  0
 14 15  1  0
 15 16  1  0
 15 17  2  0
 10 18  1  0
 18 19  1  0
 19 20  1  0
 20 21  1  0
 21 22  1  0
 22 23  1  0
 22 24  1  0
 24 25  2  0
 24 26  1  0
 26 27  2  0
 27 28  1  0
 28 29  2  0
 29 30  1  0
 30 31  1  0
 31 32  2  0
 32 33  1  0
 33 34  2  0
 34 35  1  0
 35 36  2  0
 29 37  1  0
 37 38  2  0
 18 39  1  0
 39 40  2  0
 39 41  1  0
 41  2  1  0
 17 11  1  0
 38 26  1  0
 36 31  1  0
  1 42  1  0
  1 43  1  0
  1 44  1  0
  7 45  1  0
  8 46  1  0
  8 47  1  0
  8 48  1  0
  9 49  1  0
  9 50  1  0
  9 51  1  0
 10 52  1  6
 12 53  1  0
 13 54  1  0
 14 55  1  0
 17 56  1  0
 19 57  1  0
 19 58  1  0
 20 59  1  0
 20 60  1  0
 21 61  1  0
 21 62  1  0
 23 63  1  0
 23 64  1  0
 23 65  1  0
 27 66  1  0
 28 67  1  0
 32 68  1  0
 33 69  1  0
 34 70  1  0
 35 71  1  0
 36 72  1  0
 37 73  1  0
 38 74  1  0
 41 75  1  0
M  END
>  <docking_score>  (3) 
-7.0010000000000003

$$$$
