
     RDKit          3D

 50 53  0  0  0  0  0  0  0  0999 V2000
  119.9204  121.3816  144.3590 C   0  0  0  0  0  0  0  0  0  0  0  0
  119.8629  122.4950  143.4609 N   0  0  0  0  0  0  0  0  0  0  0  0
  120.6743  123.6398  143.8393 C   0  0  0  0  0  0  0  0  0  0  0  0
  121.6338  123.3438  142.7146 C   0  0  0  0  0  0  0  0  0  0  0  0
  121.8875  124.5171  141.8373 C   0  0  0  0  0  0  0  0  0  0  0  0
  122.6942  125.5532  142.6110 C   0  0  0  0  0  0  0  0  0  0  0  0
  123.9076  124.9165  143.1231 N   0  0  0  0  0  0  0  0  0  0  0  0
  125.1770  125.4270  142.7904 C   0  0  0  0  0  0  0  0  0  0  0  0
  125.1907  126.4076  142.0142 O   0  0  0  0  0  0  0  0  0  0  0  0
  126.3683  124.8886  143.2844 N   0  0  0  0  0  0  0  0  0  0  0  0
  127.6446  125.4017  142.9378 C   0  0  0  0  0  0  0  0  0  0  0  0
  128.0786  126.6714  143.1709 C   0  0  0  0  0  0  0  0  0  0  0  0
  129.3680  127.0906  142.8176 C   0  0  0  0  0  0  0  0  0  0  0  0
  129.7526  128.3487  143.0665 F   0  0  0  0  0  0  0  0  0  0  0  0
  130.2053  126.1962  142.2231 C   0  0  0  0  0  0  0  0  0  0  0  0
  129.8045  124.9018  141.9689 C   0  0  0  0  0  0  0  0  0  0  0  0
  130.7012  124.0713  141.3718 F   0  0  0  0  0  0  0  0  0  0  0  0
  128.5526  124.5301  142.3235 C   0  0  0  0  0  0  0  0  0  0  0  0
  123.7311  123.7699  143.9629 C   0  0  0  0  0  0  0  0  0  0  0  0
  122.9481  122.7285  143.1647 C   0  0  0  0  0  0  0  0  0  0  0  0
  120.6310  122.3556  142.2329 C   0  0  2  0  0  0  0  0  0  0  0  0
  119.8538  122.6968  141.0292 C   0  0  0  0  0  0  0  0  0  0  0  0
  118.7417  123.4968  141.0434 C   0  0  0  0  0  0  0  0  0  0  0  0
  118.0830  123.7728  139.8666 C   0  0  0  0  0  0  0  0  0  0  0  0
  118.4771  123.2855  138.6436 C   0  0  0  0  0  0  0  0  0  0  0  0
  117.6052  123.6657  137.1749 Cl  0  0  0  0  0  0  0  0  0  0  0  0
  119.5971  122.4803  138.6351 C   0  0  0  0  0  0  0  0  0  0  0  0
  120.2721  122.1900  139.7948 C   0  0  0  0  0  0  0  0  0  0  0  0
  119.8325  120.4520  143.7443 H   0  0  0  0  0  0  0  0  0  0  0  0
  120.8673  121.2931  144.9178 H   0  0  0  0  0  0  0  0  0  0  0  0
  119.0753  121.3458  145.0751 H   0  0  0  0  0  0  0  0  0  0  0  0
  120.1411  124.5966  143.7818 H   0  0  0  0  0  0  0  0  0  0  0  0
  121.1781  123.5403  144.8179 H   0  0  0  0  0  0  0  0  0  0  0  0
  122.5312  124.2373  140.9718 H   0  0  0  0  0  0  0  0  0  0  0  0
  120.9607  124.9754  141.5059 H   0  0  0  0  0  0  0  0  0  0  0  0
  122.1410  125.9709  143.4492 H   0  0  0  0  0  0  0  0  0  0  0  0
  122.9539  126.3648  141.9086 H   0  0  0  0  0  0  0  0  0  0  0  0
  126.3559  124.0468  143.9572 H   0  0  0  0  0  0  0  0  0  0  0  0
  127.4165  127.3983  143.6275 H   0  0  0  0  0  0  0  0  0  0  0  0
  131.2200  126.5012  141.9373 H   0  0  0  0  0  0  0  0  0  0  0  0
  128.2481  123.5117  142.1194 H   0  0  0  0  0  0  0  0  0  0  0  0
  124.6514  123.3143  144.3403 H   0  0  0  0  0  0  0  0  0  0  0  0
  123.1084  124.1256  144.8289 H   0  0  0  0  0  0  0  0  0  0  0  0
  122.7529  121.8730  143.8086 H   0  0  0  0  0  0  0  0  0  0  0  0
  123.5254  122.4753  142.2763 H   0  0  0  0  0  0  0  0  0  0  0  0
  121.1159  121.3555  142.1273 H   0  0  0  0  0  0  0  0  0  0  0  0
  118.3739  123.9098  141.9982 H   0  0  0  0  0  0  0  0  0  0  0  0
  117.1944  124.4103  139.8660 H   0  0  0  0  0  0  0  0  0  0  0  0
  119.9512  122.0676  137.6873 H   0  0  0  0  0  0  0  0  0  0  0  0
  121.1530  121.5485  139.7395 H   0  0  0  0  0  0  0  0  0  0  0  0
  1  2  1  0
  2  3  1  0
  3  4  1  0
  4  5  1  0
  5  6  1  0
  6  7  1  0
  7  8  1  0
  8  9  2  0
  8 10  1  0
 10 11  1  0
 11 12  2  0
 12 13  1  0
 13 14  1  0
 13 15  2  0
 15 16  1  0
 16 17  1  0
 16 18  2  0
  7 19  1  0
 19 20  1  0
  4 21  1  0
 21 22  1  0
 22 23  2  0
 23 24  1  0
 24 25  2  0
 25 26  1  0
 25 27  1  0
 27 28  2  0
 21  2  1  0
 28 22  1  0
 20  4  1  0
 18 11  1  0
  1 29  1  0
  1 30  1  0
  1 31  1  0
  3 32  1  0
  3 33  1  0
  5 34  1  0
  5 35  1  0
  6 36  1  0
  6 37  1  0
 10 38  1  0
 12 39  1  0
 15 40  1  0
 18 41  1  0
 19 42  1  0
 19 43  1  0
 20 44  1  0
 20 45  1  0
 21 46  1  6
 23 47  1  0
 24 48  1  0
 27 49  1  0
 28 50  1  0
M  END
>  <docking_score>  (1) 
-8.3010000000000002

$$$$

     RDKit          3D

 50 53  0  0  0  0  0  0  0  0999 V2000
  139.4761  132.5016  141.5647 C   0  0  0  0  0  0  0  0  0  0  0  0
  139.7468  133.1863  140.3370 N   0  0  0  0  0  0  0  0  0  0  0  0
  140.2519  134.5414  140.4807 C   0  0  0  0  0  0  0  0  0  0  0  0
  141.6159  134.0921  140.0215 C   0  0  0  0  0  0  0  0  0  0  0  0
  142.1549  134.9081  138.9016 C   0  0  0  0  0  0  0  0  0  0  0  0
  142.4922  136.3020  139.4174 C   0  0  0  0  0  0  0  0  0  0  0  0
  143.4026  136.1737  140.5553 N   0  0  0  0  0  0  0  0  0  0  0  0
  144.6611  136.8049  140.5380 C   0  0  0  0  0  0  0  0  0  0  0  0
  145.0346  137.2597  139.4344 O   0  0  0  0  0  0  0  0  0  0  0  0
  145.4668  136.9297  141.6731 N   0  0  0  0  0  0  0  0  0  0  0  0
  146.7381  137.5585  141.6468 C   0  0  0  0  0  0  0  0  0  0  0  0
  146.9727  138.8591  141.3178 C   0  0  0  0  0  0  0  0  0  0  0  0
  148.2612  139.4089  141.3417 C   0  0  0  0  0  0  0  0  0  0  0  0
  148.4452  140.6932  141.0111 F   0  0  0  0  0  0  0  0  0  0  0  0
  149.3043  138.6123  141.7049 C   0  0  0  0  0  0  0  0  0  0  0  0
  149.1096  137.2904  142.0444 C   0  0  0  0  0  0  0  0  0  0  0  0
  150.2043  136.5632  142.3951 F   0  0  0  0  0  0  0  0  0  0  0  0
  147.8521  136.7917  142.0110 C   0  0  0  0  0  0  0  0  0  0  0  0
  142.9478  135.3861  141.6616 C   0  0  0  0  0  0  0  0  0  0  0  0
  142.6424  133.9841  141.1364 C   0  0  0  0  0  0  0  0  0  0  0  0
  140.9737  132.8004  139.6564 C   0  0  2  0  0  0  0  0  0  0  0  0
  140.7698  132.5149  138.2259 C   0  0  0  0  0  0  0  0  0  0  0  0
  141.7092  131.9164  137.4283 C   0  0  0  0  0  0  0  0  0  0  0  0
  141.4277  131.6770  136.1022 C   0  0  0  0  0  0  0  0  0  0  0  0
  140.2338  132.0079  135.5077 C   0  0  0  0  0  0  0  0  0  0  0  0
  139.9242  131.6823  133.8166 Cl  0  0  0  0  0  0  0  0  0  0  0  0
  139.2918  132.6105  136.3152 C   0  0  0  0  0  0  0  0  0  0  0  0
  139.5475  132.8602  137.6407 C   0  0  0  0  0  0  0  0  0  0  0  0
  138.5580  131.8836  141.4068 H   0  0  0  0  0  0  0  0  0  0  0  0
  140.2675  131.8020  141.8824 H   0  0  0  0  0  0  0  0  0  0  0  0
  139.2364  133.1805  142.4073 H   0  0  0  0  0  0  0  0  0  0  0  0
  139.7420  135.2722  139.8411 H   0  0  0  0  0  0  0  0  0  0  0  0
  140.2921  134.9067  141.5229 H   0  0  0  0  0  0  0  0  0  0  0  0
  143.1221  134.4939  138.5346 H   0  0  0  0  0  0  0  0  0  0  0  0
  141.4355  135.0016  138.0936 H   0  0  0  0  0  0  0  0  0  0  0  0
  141.6107  136.8523  139.7384 H   0  0  0  0  0  0  0  0  0  0  0  0
  142.9820  136.8517  138.5944 H   0  0  0  0  0  0  0  0  0  0  0  0
  145.1425  136.5421  142.6250 H   0  0  0  0  0  0  0  0  0  0  0  0
  146.1539  139.4994  141.0101 H   0  0  0  0  0  0  0  0  0  0  0  0
  150.3226  139.0204  141.7310 H   0  0  0  0  0  0  0  0  0  0  0  0
  147.7104  135.7528  142.2795 H   0  0  0  0  0  0  0  0  0  0  0  0
  143.6413  135.3097  142.5043 H   0  0  0  0  0  0  0  0  0  0  0  0
  141.9950  135.8742  142.0055 H   0  0  0  0  0  0  0  0  0  0  0  0
  142.2385  133.3883  141.9527 H   0  0  0  0  0  0  0  0  0  0  0  0
  143.5582  133.5712  140.7148 H   0  0  0  0  0  0  0  0  0  0  0  0
  141.5123  131.9622  140.1601 H   0  0  0  0  0  0  0  0  0  0  0  0
  142.6898  131.6361  137.8495 H   0  0  0  0  0  0  0  0  0  0  0  0
  142.1700  131.1995  135.4563 H   0  0  0  0  0  0  0  0  0  0  0  0
  138.3257  132.8933  135.8899 H   0  0  0  0  0  0  0  0  0  0  0  0
  138.7722  133.3390  138.2409 H   0  0  0  0  0  0  0  0  0  0  0  0
  1  2  1  0
  2  3  1  0
  3  4  1  0
  4  5  1  0
  5  6  1  0
  6  7  1  0
  7  8  1  0
  8  9  2  0
  8 10  1  0
 10 11  1  0
 11 12  2  0
 12 13  1  0
 13 14  1  0
 13 15  2  0
 15 16  1  0
 16 17  1  0
 16 18  2  0
  7 19  1  0
 19 20  1  0
  4 21  1  0
 21 22  1  0
 22 23  2  0
 23 24  1  0
 24 25  2  0
 25 26  1  0
 25 27  1  0
 27 28  2  0
 21  2  1  0
 28 22  1  0
 20  4  1  0
 18 11  1  0
  1 29  1  0
  1 30  1  0
  1 31  1  0
  3 32  1  0
  3 33  1  0
  5 34  1  0
  5 35  1  0
  6 36  1  0
  6 37  1  0
 10 38  1  0
 12 39  1  0
 15 40  1  0
 18 41  1  0
 19 42  1  0
 19 43  1  0
 20 44  1  0
 20 45  1  0
 21 46  1  1
 23 47  1  0
 24 48  1  0
 27 49  1  0
 28 50  1  0
M  END
>  <docking_score>  (2) 
-7.7199999999999998

$$$$

     RDKit          3D

 50 53  0  0  0  0  0  0  0  0999 V2000
  143.3131  137.5960  140.3904 C   0  0  0  0  0  0  0  0  0  0  0  0
  144.6705  137.1602  140.5210 N   0  0  0  0  0  0  0  0  0  0  0  0
  145.1138  136.2030  139.5213 C   0  0  0  0  0  0  0  0  0  0  0  0
  145.9756  137.2596  138.8778 C   0  0  0  0  0  0  0  0  0  0  0  0
  147.3880  136.8322  138.6958 C   0  0  0  0  0  0  0  0  0  0  0  0
  147.4474  135.7498  137.6245 C   0  0  0  0  0  0  0  0  0  0  0  0
  146.8156  136.2591  136.4073 N   0  0  0  0  0  0  0  0  0  0  0  0
  147.5309  136.3012  135.1951 C   0  0  0  0  0  0  0  0  0  0  0  0
  148.7062  136.7235  135.2630 O   0  0  0  0  0  0  0  0  0  0  0  0
  146.9839  135.9007  133.9730 N   0  0  0  0  0  0  0  0  0  0  0  0
  147.7069  135.9546  132.7538 C   0  0  0  0  0  0  0  0  0  0  0  0
  148.7805  135.1802  132.4338 C   0  0  0  0  0  0  0  0  0  0  0  0
  149.4235  135.2808  131.1929 C   0  0  0  0  0  0  0  0  0  0  0  0
  150.4755  134.4985  130.9209 F   0  0  0  0  0  0  0  0  0  0  0  0
  148.9552  136.1824  130.2862 C   0  0  0  0  0  0  0  0  0  0  0  0
  147.8716  136.9856  130.5712 C   0  0  0  0  0  0  0  0  0  0  0  0
  147.4670  137.8602  129.6111 F   0  0  0  0  0  0  0  0  0  0  0  0
  147.2739  136.8623  131.7789 C   0  0  0  0  0  0  0  0  0  0  0  0
  145.4583  136.7018  136.5199 C   0  0  0  0  0  0  0  0  0  0  0  0
  145.4185  137.8069  137.5744 C   0  0  0  0  0  0  0  0  0  0  0  0
  145.6823  138.1029  140.0682 C   0  0  2  0  0  0  0  0  0  0  0  0
  146.7607  138.3019  141.0514 C   0  0  0  0  0  0  0  0  0  0  0  0
  147.0486  137.4145  142.0547 C   0  0  0  0  0  0  0  0  0  0  0  0
  148.0841  137.6767  142.9230 C   0  0  0  0  0  0  0  0  0  0  0  0
  148.8707  138.8011  142.8491 C   0  0  0  0  0  0  0  0  0  0  0  0
  150.1765  139.0889  143.9778 Cl  0  0  0  0  0  0  0  0  0  0  0  0
  148.5764  139.6912  141.8373 C   0  0  0  0  0  0  0  0  0  0  0  0
  147.5491  139.4532  140.9583 C   0  0  0  0  0  0  0  0  0  0  0  0
  143.2566  138.2442  139.4814 H   0  0  0  0  0  0  0  0  0  0  0  0
  142.5845  136.7825  140.2345 H   0  0  0  0  0  0  0  0  0  0  0  0
  142.9688  138.2313  141.2307 H   0  0  0  0  0  0  0  0  0  0  0  0
  145.6410  135.3382  139.9421 H   0  0  0  0  0  0  0  0  0  0  0  0
  144.3228  135.8683  138.8258 H   0  0  0  0  0  0  0  0  0  0  0  0
  148.0101  137.6668  138.2981 H   0  0  0  0  0  0  0  0  0  0  0  0
  147.8061  136.4339  139.6153 H   0  0  0  0  0  0  0  0  0  0  0  0
  146.9371  134.8376  137.9250 H   0  0  0  0  0  0  0  0  0  0  0  0
  148.5123  135.5241  137.4384 H   0  0  0  0  0  0  0  0  0  0  0  0
  145.9727  135.5322  133.9158 H   0  0  0  0  0  0  0  0  0  0  0  0
  149.1742  134.4709  133.1528 H   0  0  0  0  0  0  0  0  0  0  0  0
  149.4423  136.2794  129.3076 H   0  0  0  0  0  0  0  0  0  0  0  0
  146.4241  137.4976  131.9924 H   0  0  0  0  0  0  0  0  0  0  0  0
  145.0036  137.0717  135.5961 H   0  0  0  0  0  0  0  0  0  0  0  0
  144.8816  135.8098  136.8885 H   0  0  0  0  0  0  0  0  0  0  0  0
  144.3841  138.1140  137.7160 H   0  0  0  0  0  0  0  0  0  0  0  0
  146.0664  138.6176  137.2431 H   0  0  0  0  0  0  0  0  0  0  0  0
  145.2570  139.0801  139.7357 H   0  0  0  0  0  0  0  0  0  0  0  0
  146.4447  136.4980  142.1678 H   0  0  0  0  0  0  0  0  0  0  0  0
  148.3230  136.9753  143.7274 H   0  0  0  0  0  0  0  0  0  0  0  0
  149.1729  140.6013  141.7360 H   0  0  0  0  0  0  0  0  0  0  0  0
  147.3530  140.1857  140.1737 H   0  0  0  0  0  0  0  0  0  0  0  0
  1  2  1  0
  2  3  1  0
  3  4  1  0
  4  5  1  0
  5  6  1  0
  6  7  1  0
  7  8  1  0
  8  9  2  0
  8 10  1  0
 10 11  1  0
 11 12  2  0
 12 13  1  0
 13 14  1  0
 13 15  2  0
 15 16  1  0
 16 17  1  0
 16 18  2  0
  7 19  1  0
 19 20  1  0
  4 21  1  0
 21 22  1  0
 22 23  2  0
 23 24  1  0
 24 25  2  0
 25 26  1  0
 25 27  1  0
 27 28  2  0
 21  2  1  0
 28 22  1  0
 20  4  1  0
 18 11  1  0
  1 29  1  0
  1 30  1  0
  1 31  1  0
  3 32  1  0
  3 33  1  0
  5 34  1  0
  5 35  1  0
  6 36  1  0
  6 37  1  0
 10 38  1  0
 12 39  1  0
 15 40  1  0
 18 41  1  0
 19 42  1  0
 19 43  1  0
 20 44  1  0
 20 45  1  0
 21 46  1  6
 23 47  1  0
 24 48  1  0
 27 49  1  0
 28 50  1  0
M  END
>  <docking_score>  (3) 
-7.4690000000000003

$$$$
