
     RDKit          3D

 61 63  0  0  0  0  0  0  0  0999 V2000
  136.9525  118.4333  133.6532 C   0  0  0  0  0  0  0  0  0  0  0  0
  136.6325  118.5908  135.1084 C   0  0  0  0  0  0  0  0  0  0  0  0
  136.1157  117.3135  135.7361 C   0  0  2  0  0  0  0  0  0  0  0  0
  134.6650  117.1882  135.4141 C   0  0  0  0  0  0  0  0  0  0  0  0
  136.3923  117.3252  137.2177 C   0  0  2  0  0  0  0  0  0  0  0  0
  136.2047  118.6620  137.7456 N   0  0  0  0  0  0  0  0  0  0  0  0
  135.4353  118.9339  138.9207 C   0  0  0  0  0  0  0  0  0  0  0  0
  134.9120  117.9480  139.4969 O   0  0  0  0  0  0  0  0  0  0  0  0
  135.2612  120.2482  139.4255 N   0  0  0  0  0  0  0  0  0  0  0  0
  136.3886  121.1568  139.4223 C   0  0  0  0  0  0  0  0  0  0  0  0
  135.8107  122.5191  139.0450 C   0  0  0  0  0  0  0  0  0  0  0  0
  134.9529  123.0482  140.1816 C   0  0  0  0  0  0  0  0  0  0  0  0
  134.3319  121.8965  140.8950 C   0  0  0  0  0  0  0  0  0  0  0  0
  134.0158  120.7518  139.9511 C   0  0  0  0  0  0  0  0  0  0  0  0
  135.8074  123.9563  141.0407 C   0  0  0  0  0  0  0  0  0  0  0  0
  135.0505  125.0789  140.5675 N   0  0  0  0  0  0  0  0  0  0  0  0
  135.7586  126.0427  139.7813 C   0  0  0  0  0  0  0  0  0  0  0  0
  134.1189  124.2288  139.8506 C   0  0  2  0  0  0  0  0  0  0  0  0
  132.7754  124.3403  140.4611 C   0  0  0  0  0  0  0  0  0  0  0  0
  132.5285  124.8380  141.7196 C   0  0  0  0  0  0  0  0  0  0  0  0
  131.2772  124.9368  142.2786 C   0  0  0  0  0  0  0  0  0  0  0  0
  130.1884  124.5254  141.5711 C   0  0  0  0  0  0  0  0  0  0  0  0
  128.5810  124.6355  142.2486 Cl  0  0  0  0  0  0  0  0  0  0  0  0
  130.3750  124.0150  140.2981 C   0  0  0  0  0  0  0  0  0  0  0  0
  131.6353  123.9255  139.7589 C   0  0  0  0  0  0  0  0  0  0  0  0
  137.7183  116.7973  137.5590 C   0  0  0  0  0  0  0  0  0  0  0  0
  138.4963  117.5507  138.2378 O   0  0  0  0  0  0  0  0  0  0  0  0
  138.2098  115.5727  137.2229 O   0  0  0  0  0  0  0  0  0  0  0  0
  139.1675  115.4188  136.1924 C   0  0  0  0  0  0  0  0  0  0  0  0
  136.4226  119.1245  132.9868 H   0  0  0  0  0  0  0  0  0  0  0  0
  136.6804  117.4030  133.2789 H   0  0  0  0  0  0  0  0  0  0  0  0
  138.0626  118.4976  133.5234 H   0  0  0  0  0  0  0  0  0  0  0  0
  135.9319  119.4382  135.2713 H   0  0  0  0  0  0  0  0  0  0  0  0
  137.6032  118.8083  135.6445 H   0  0  0  0  0  0  0  0  0  0  0  0
  136.6327  116.4665  135.2241 H   0  0  0  0  0  0  0  0  0  0  0  0
  134.4279  117.2362  134.3316 H   0  0  0  0  0  0  0  0  0  0  0  0
  134.3480  116.1498  135.7290 H   0  0  0  0  0  0  0  0  0  0  0  0
  134.0069  117.8577  136.0271 H   0  0  0  0  0  0  0  0  0  0  0  0
  135.6387  116.6744  137.7041 H   0  0  0  0  0  0  0  0  0  0  0  0
  136.6279  119.5108  137.2897 H   0  0  0  0  0  0  0  0  0  0  0  0
  137.1641  120.8975  138.6875 H   0  0  0  0  0  0  0  0  0  0  0  0
  136.8834  121.1959  140.4170 H   0  0  0  0  0  0  0  0  0  0  0  0
  135.1312  122.3230  138.1822 H   0  0  0  0  0  0  0  0  0  0  0  0
  136.6520  123.1814  138.8082 H   0  0  0  0  0  0  0  0  0  0  0  0
  133.4473  122.1415  141.4827 H   0  0  0  0  0  0  0  0  0  0  0  0
  135.0946  121.5335  141.6437 H   0  0  0  0  0  0  0  0  0  0  0  0
  133.5449  119.9406  140.5376 H   0  0  0  0  0  0  0  0  0  0  0  0
  133.3718  121.1134  139.1521 H   0  0  0  0  0  0  0  0  0  0  0  0
  135.6863  123.8205  142.1274 H   0  0  0  0  0  0  0  0  0  0  0  0
  136.8946  123.9916  140.7648 H   0  0  0  0  0  0  0  0  0  0  0  0
  135.1074  126.8661  139.4251 H   0  0  0  0  0  0  0  0  0  0  0  0
  136.5959  126.4474  140.4109 H   0  0  0  0  0  0  0  0  0  0  0  0
  136.2661  125.5001  138.9494 H   0  0  0  0  0  0  0  0  0  0  0  0
  134.0972  124.4100  138.7513 H   0  0  0  0  0  0  0  0  0  0  0  0
  133.3669  125.1752  142.3108 H   0  0  0  0  0  0  0  0  0  0  0  0
  131.1310  125.3349  143.2719 H   0  0  0  0  0  0  0  0  0  0  0  0
  129.5100  123.6826  139.7231 H   0  0  0  0  0  0  0  0  0  0  0  0
  131.8094  123.5276  138.7595 H   0  0  0  0  0  0  0  0  0  0  0  0
  139.9561  114.6890  136.4599 H   0  0  0  0  0  0  0  0  0  0  0  0
  139.6570  116.4069  136.0429 H   0  0  0  0  0  0  0  0  0  0  0  0
  138.7067  115.0994  135.2365 H   0  0  0  0  0  0  0  0  0  0  0  0
  1  2  1  0
  2  3  1  0
  3  4  1  0
  3  5  1  0
  5  6  1  0
  6  7  1  0
  7  8  2  0
  7  9  1  0
  9 10  1  0
 10 11  1  0
 11 12  1  0
 12 13  1  0
 13 14  1  0
 12 15  1  0
 15 16  1  0
 16 17  1  0
 16 18  1  0
 18 19  1  0
 19 20  2  0
 20 21  1  0
 21 22  2  0
 22 23  1  0
 22 24  1  0
 24 25  2  0
  5 26  1  0
 26 27  2  0
 26 28  1  0
 28 29  1  0
 14  9  1  0
 25 19  1  0
 18 12  1  0
  1 30  1  0
  1 31  1  0
  1 32  1  0
  2 33  1  0
  2 34  1  0
  3 35  1  6
  4 36  1  0
  4 37  1  0
  4 38  1  0
  5 39  1  1
  6 40  1  0
 10 41  1  0
 10 42  1  0
 11 43  1  0
 11 44  1  0
 13 45  1  0
 13 46  1  0
 14 47  1  0
 14 48  1  0
 15 49  1  0
 15 50  1  0
 17 51  1  0
 17 52  1  0
 17 53  1  0
 18 54  1  6
 20 55  1  0
 21 56  1  0
 24 57  1  0
 25 58  1  0
 29 59  1  0
 29 60  1  0
 29 61  1  0
M  END
>  <docking_score>  (1) 
-6.2270000000000003

$$$$

     RDKit          3D

 61 63  0  0  0  0  0  0  0  0999 V2000
  135.4073  123.9232  138.7480 C   0  0  0  0  0  0  0  0  0  0  0  0
  134.1521  124.7407  138.7755 C   0  0  0  0  0  0  0  0  0  0  0  0
  133.2647  124.4121  139.9577 C   0  0  2  0  0  0  0  0  0  0  0  0
  132.7081  123.0431  139.7579 C   0  0  0  0  0  0  0  0  0  0  0  0
  132.1983  125.4671  140.1036 C   0  0  2  0  0  0  0  0  0  0  0  0
  132.6013  126.6769  139.4145 N   0  0  0  0  0  0  0  0  0  0  0  0
  131.6922  127.4807  138.6568 C   0  0  0  0  0  0  0  0  0  0  0  0
  130.4986  127.0927  138.6061 O   0  0  0  0  0  0  0  0  0  0  0  0
  132.1018  128.6628  137.9879 N   0  0  0  0  0  0  0  0  0  0  0  0
  131.0950  129.6075  137.5514 C   0  0  0  0  0  0  0  0  0  0  0  0
  131.6925  130.9880  137.8146 C   0  0  0  0  0  0  0  0  0  0  0  0
  132.8388  131.2459  136.8516 C   0  0  0  0  0  0  0  0  0  0  0  0
  133.4997  129.9498  136.5286 C   0  0  0  0  0  0  0  0  0  0  0  0
  133.4771  128.9954  137.7076 C   0  0  0  0  0  0  0  0  0  0  0  0
  132.2984  132.0104  135.6615 C   0  0  0  0  0  0  0  0  0  0  0  0
  133.0243  133.1660  136.1026 N   0  0  0  0  0  0  0  0  0  0  0  0
  132.2445  134.2961  136.5064 C   0  0  0  0  0  0  0  0  0  0  0  0
  133.6781  132.4272  137.1662 C   0  0  2  0  0  0  0  0  0  0  0  0
  135.1318  132.3546  136.8984 C   0  0  0  0  0  0  0  0  0  0  0  0
  135.7366  132.8006  135.7461 C   0  0  0  0  0  0  0  0  0  0  0  0
  137.0876  132.7280  135.5058 C   0  0  0  0  0  0  0  0  0  0  0  0
  137.9113  132.1861  136.4457 C   0  0  0  0  0  0  0  0  0  0  0  0
  139.6347  132.0768  136.1762 Cl  0  0  0  0  0  0  0  0  0  0  0  0
  137.3593  131.7200  137.6263 C   0  0  0  0  0  0  0  0  0  0  0  0
  136.0056  131.8026  137.8453 C   0  0  0  0  0  0  0  0  0  0  0  0
  131.8478  125.7405  141.5022 C   0  0  0  0  0  0  0  0  0  0  0  0
  132.3806  126.7625  142.0548 O   0  0  0  0  0  0  0  0  0  0  0  0
  131.0030  125.0086  142.2797 O   0  0  0  0  0  0  0  0  0  0  0  0
  130.9423  125.1941  143.6814 C   0  0  0  0  0  0  0  0  0  0  0  0
  135.5718  123.3003  139.6355 H   0  0  0  0  0  0  0  0  0  0  0  0
  136.3255  124.5772  138.6781 H   0  0  0  0  0  0  0  0  0  0  0  0
  135.4181  123.3182  137.8061 H   0  0  0  0  0  0  0  0  0  0  0  0
  133.6004  124.6537  137.8145 H   0  0  0  0  0  0  0  0  0  0  0  0
  134.4559  125.8184  138.9284 H   0  0  0  0  0  0  0  0  0  0  0  0
  133.9251  124.3624  140.8567 H   0  0  0  0  0  0  0  0  0  0  0  0
  131.9872  122.9572  138.9194 H   0  0  0  0  0  0  0  0  0  0  0  0
  133.5723  122.3784  139.4595 H   0  0  0  0  0  0  0  0  0  0  0  0
  132.3284  122.5681  140.6999 H   0  0  0  0  0  0  0  0  0  0  0  0
  131.2859  125.0930  139.5980 H   0  0  0  0  0  0  0  0  0  0  0  0
  133.5917  127.0319  139.4349 H   0  0  0  0  0  0  0  0  0  0  0  0
  130.1479  129.5323  138.1046 H   0  0  0  0  0  0  0  0  0  0  0  0
  130.8534  129.4770  136.4741 H   0  0  0  0  0  0  0  0  0  0  0  0
  132.1292  130.9303  138.8396 H   0  0  0  0  0  0  0  0  0  0  0  0
  130.8848  131.7228  137.7150 H   0  0  0  0  0  0  0  0  0  0  0  0
  134.5164  130.0343  136.1452 H   0  0  0  0  0  0  0  0  0  0  0  0
  132.9037  129.4857  135.6901 H   0  0  0  0  0  0  0  0  0  0  0  0
  133.9949  128.0648  137.4084 H   0  0  0  0  0  0  0  0  0  0  0  0
  133.9464  129.4737  138.5650 H   0  0  0  0  0  0  0  0  0  0  0  0
  132.6581  131.6614  134.6802 H   0  0  0  0  0  0  0  0  0  0  0  0
  131.1850  132.1500  135.6483 H   0  0  0  0  0  0  0  0  0  0  0  0
  132.0269  134.9877  135.6677 H   0  0  0  0  0  0  0  0  0  0  0  0
  131.2904  133.9092  136.9549 H   0  0  0  0  0  0  0  0  0  0  0  0
  132.7743  134.7935  137.3525 H   0  0  0  0  0  0  0  0  0  0  0  0
  133.4579  132.8162  138.1870 H   0  0  0  0  0  0  0  0  0  0  0  0
  135.1162  133.2374  134.9778 H   0  0  0  0  0  0  0  0  0  0  0  0
  137.5188  133.0915  134.5849 H   0  0  0  0  0  0  0  0  0  0  0  0
  138.0099  131.2842  138.3854 H   0  0  0  0  0  0  0  0  0  0  0  0
  135.5461  131.4430  138.7656 H   0  0  0  0  0  0  0  0  0  0  0  0
  131.8789  124.8853  144.1850 H   0  0  0  0  0  0  0  0  0  0  0  0
  130.1217  124.5490  144.0671 H   0  0  0  0  0  0  0  0  0  0  0  0
  130.7294  126.2464  143.9558 H   0  0  0  0  0  0  0  0  0  0  0  0
  1  2  1  0
  2  3  1  0
  3  4  1  0
  3  5  1  0
  5  6  1  0
  6  7  1  0
  7  8  2  0
  7  9  1  0
  9 10  1  0
 10 11  1  0
 11 12  1  0
 12 13  1  0
 13 14  1  0
 12 15  1  0
 15 16  1  0
 16 17  1  0
 16 18  1  0
 18 19  1  0
 19 20  2  0
 20 21  1  0
 21 22  2  0
 22 23  1  0
 22 24  1  0
 24 25  2  0
  5 26  1  0
 26 27  2  0
 26 28  1  0
 28 29  1  0
 14  9  1  0
 25 19  1  0
 18 12  1  0
  1 30  1  0
  1 31  1  0
  1 32  1  0
  2 33  1  0
  2 34  1  0
  3 35  1  1
  4 36  1  0
  4 37  1  0
  4 38  1  0
  5 39  1  6
  6 40  1  0
 10 41  1  0
 10 42  1  0
 11 43  1  0
 11 44  1  0
 13 45  1  0
 13 46  1  0
 14 47  1  0
 14 48  1  0
 15 49  1  0
 15 50  1  0
 17 51  1  0
 17 52  1  0
 17 53  1  0
 18 54  1  1
 20 55  1  0
 21 56  1  0
 24 57  1  0
 25 58  1  0
 29 59  1  0
 29 60  1  0
 29 61  1  0
M  END
>  <docking_score>  (2) 
-5.7889999999999997

$$$$

     RDKit          3D

 61 63  0  0  0  0  0  0  0  0999 V2000
  124.6374  126.4097  141.7807 C   0  0  0  0  0  0  0  0  0  0  0  0
  126.0779  126.7640  141.9909 C   0  0  0  0  0  0  0  0  0  0  0  0
  126.9199  125.5744  142.4014 C   0  0  2  0  0  0  0  0  0  0  0  0
  126.2650  124.9193  143.5700 C   0  0  0  0  0  0  0  0  0  0  0  0
  128.3297  126.0228  142.6899 C   0  0  2  0  0  0  0  0  0  0  0  0
  128.7875  126.9184  141.6463 N   0  0  0  0  0  0  0  0  0  0  0  0
  129.4884  128.1357  141.9175 C   0  0  0  0  0  0  0  0  0  0  0  0
  129.7002  128.4117  143.1245 O   0  0  0  0  0  0  0  0  0  0  0  0
  129.9306  129.0021  140.8848 N   0  0  0  0  0  0  0  0  0  0  0  0
  130.6706  128.4467  139.7710 C   0  0  0  0  0  0  0  0  0  0  0  0
  130.1699  129.1951  138.5376 C   0  0  0  0  0  0  0  0  0  0  0  0
  130.6503  130.6358  138.5783 C   0  0  0  0  0  0  0  0  0  0  0  0
  130.7534  131.0710  140.0000 C   0  0  0  0  0  0  0  0  0  0  0  0
  129.6896  130.4242  140.8668 C   0  0  0  0  0  0  0  0  0  0  0  0
  131.9317  130.7336  137.7776 C   0  0  0  0  0  0  0  0  0  0  0  0
  131.2257  131.4867  136.7819 N   0  0  0  0  0  0  0  0  0  0  0  0
  131.0947  130.8788  135.4929 C   0  0  0  0  0  0  0  0  0  0  0  0
  130.0209  131.5426  137.5881 C   0  0  2  0  0  0  0  0  0  0  0  0
  129.7522  132.9437  137.9816 C   0  0  0  0  0  0  0  0  0  0  0  0
  128.5082  133.4431  138.2903 C   0  0  0  0  0  0  0  0  0  0  0  0
  128.2682  134.7463  138.6539 C   0  0  0  0  0  0  0  0  0  0  0  0
  129.3038  135.6284  138.7237 C   0  0  0  0  0  0  0  0  0  0  0  0
  129.0378  137.2938  139.1825 Cl  0  0  0  0  0  0  0  0  0  0  0  0
  130.5796  135.1830  138.4239 C   0  0  0  0  0  0  0  0  0  0  0  0
  130.7964  133.8754  138.0627 C   0  0  0  0  0  0  0  0  0  0  0  0
  129.2607  124.9046  142.8806 C   0  0  0  0  0  0  0  0  0  0  0  0
  129.2363  123.9628  142.0168 O   0  0  0  0  0  0  0  0  0  0  0  0
  130.1585  124.7668  143.8951 O   0  0  0  0  0  0  0  0  0  0  0  0
  131.4009  125.4442  143.8786 C   0  0  0  0  0  0  0  0  0  0  0  0
  124.0253  127.2072  141.3423 H   0  0  0  0  0  0  0  0  0  0  0  0
  124.1274  126.1551  142.7558 H   0  0  0  0  0  0  0  0  0  0  0  0
  124.5863  125.4667  141.1797 H   0  0  0  0  0  0  0  0  0  0  0  0
  126.1791  127.6040  142.7119 H   0  0  0  0  0  0  0  0  0  0  0  0
  126.4943  127.0861  140.9909 H   0  0  0  0  0  0  0  0  0  0  0  0
  126.8814  124.8421  141.5593 H   0  0  0  0  0  0  0  0  0  0  0  0
  125.5480  125.5647  144.1174 H   0  0  0  0  0  0  0  0  0  0  0  0
  125.6336  124.0755  143.1613 H   0  0  0  0  0  0  0  0  0  0  0  0
  126.9824  124.3980  144.2561 H   0  0  0  0  0  0  0  0  0  0  0  0
  128.3095  126.6047  143.6327 H   0  0  0  0  0  0  0  0  0  0  0  0
  128.6281  126.7198  140.6252 H   0  0  0  0  0  0  0  0  0  0  0  0
  130.4959  127.3725  139.6150 H   0  0  0  0  0  0  0  0  0  0  0  0
  131.7663  128.5822  139.9015 H   0  0  0  0  0  0  0  0  0  0  0  0
  129.0587  129.2148  138.6349 H   0  0  0  0  0  0  0  0  0  0  0  0
  130.5304  128.6553  137.6538 H   0  0  0  0  0  0  0  0  0  0  0  0
  130.7445  132.1500  140.1531 H   0  0  0  0  0  0  0  0  0  0  0  0
  131.7632  130.7271  140.3685 H   0  0  0  0  0  0  0  0  0  0  0  0
  129.8110  130.7998  141.9002 H   0  0  0  0  0  0  0  0  0  0  0  0
  128.7073  130.6492  140.4566 H   0  0  0  0  0  0  0  0  0  0  0  0
  132.7289  131.3342  138.2442 H   0  0  0  0  0  0  0  0  0  0  0  0
  132.3387  129.7563  137.4053 H   0  0  0  0  0  0  0  0  0  0  0  0
  130.4081  130.0084  135.4980 H   0  0  0  0  0  0  0  0  0  0  0  0
  130.7273  131.6656  134.7807 H   0  0  0  0  0  0  0  0  0  0  0  0
  132.1174  130.6225  135.1293 H   0  0  0  0  0  0  0  0  0  0  0  0
  129.1357  131.0633  137.1101 H   0  0  0  0  0  0  0  0  0  0  0  0
  127.6620  132.7735  138.2471 H   0  0  0  0  0  0  0  0  0  0  0  0
  127.2730  135.0944  138.8879 H   0  0  0  0  0  0  0  0  0  0  0  0
  131.4158  135.8810  138.4766 H   0  0  0  0  0  0  0  0  0  0  0  0
  131.7905  133.4997  137.8216 H   0  0  0  0  0  0  0  0  0  0  0  0
  131.8534  125.4634  142.8681 H   0  0  0  0  0  0  0  0  0  0  0  0
  132.0925  124.8870  144.5490 H   0  0  0  0  0  0  0  0  0  0  0  0
  131.3139  126.4877  144.2415 H   0  0  0  0  0  0  0  0  0  0  0  0
  1  2  1  0
  2  3  1  0
  3  4  1  0
  3  5  1  0
  5  6  1  0
  6  7  1  0
  7  8  2  0
  7  9  1  0
  9 10  1  0
 10 11  1  0
 11 12  1  0
 12 13  1  0
 13 14  1  0
 12 15  1  0
 15 16  1  0
 16 17  1  0
 16 18  1  0
 18 19  1  0
 19 20  2  0
 20 21  1  0
 21 22  2  0
 22 23  1  0
 22 24  1  0
 24 25  2  0
  5 26  1  0
 26 27  2  0
 26 28  1  0
 28 29  1  0
 14  9  1  0
 25 19  1  0
 18 12  1  0
  1 30  1  0
  1 31  1  0
  1 32  1  0
  2 33  1  0
  2 34  1  0
  3 35  1  6
  4 36  1  0
  4 37  1  0
  4 38  1  0
  5 39  1  1
  6 40  1  0
 10 41  1  0
 10 42  1  0
 11 43  1  0
 11 44  1  0
 13 45  1  0
 13 46  1  0
 14 47  1  0
 14 48  1  0
 15 49  1  0
 15 50  1  0
 17 51  1  0
 17 52  1  0
 17 53  1  0
 18 54  1  6
 20 55  1  0
 21 56  1  0
 24 57  1  0
 25 58  1  0
 29 59  1  0
 29 60  1  0
 29 61  1  0
M  END
>  <docking_score>  (3) 
-5.7599999999999998

$$$$
