
     RDKit          3D

 54 58  0  0  0  0  0  0  0  0999 V2000
  128.1315  127.2959  142.7011 O   0  0  0  0  0  0  0  0  0  0  0  0
  128.1947  126.1133  142.2507 C   0  0  0  0  0  0  0  0  0  0  0  0
  127.1617  125.1896  142.4047 N   0  0  0  0  0  0  0  0  0  0  0  0
  125.9417  125.4461  143.0687 C   0  0  0  0  0  0  0  0  0  0  0  0
  125.7412  125.2591  144.4105 C   0  0  0  0  0  0  0  0  0  0  0  0
  124.5078  125.5499  145.0048 C   0  0  0  0  0  0  0  0  0  0  0  0
  124.3621  125.3471  146.3340 F   0  0  0  0  0  0  0  0  0  0  0  0
  123.4564  126.0294  144.2790 C   0  0  0  0  0  0  0  0  0  0  0  0
  123.6288  126.2283  142.9208 C   0  0  0  0  0  0  0  0  0  0  0  0
  122.5845  126.7026  142.2079 F   0  0  0  0  0  0  0  0  0  0  0  0
  124.8447  125.9365  142.3625 C   0  0  0  0  0  0  0  0  0  0  0  0
  129.4038  125.7983  141.5751 N   0  0  0  0  0  0  0  0  0  0  0  0
  129.6766  126.3435  140.2798 C   0  0  0  0  0  0  0  0  0  0  0  0
  131.1782  126.4281  140.0264 C   0  0  0  0  0  0  0  0  0  0  0  0
  131.7742  125.0811  140.1843 C   0  0  0  0  0  0  0  0  0  0  0  0
  130.9391  124.0964  140.9648 C   0  0  0  0  0  0  0  0  0  0  0  0
  130.4065  124.9027  142.1612 C   0  0  0  0  0  0  0  0  0  0  0  0
  133.1575  125.0818  140.7952 C   0  0  0  0  0  0  0  0  0  0  0  0
  133.8309  125.7409  141.5884 O   0  0  0  0  0  0  0  0  0  0  0  0
  133.3741  123.8991  140.0011 N   0  0  0  0  0  0  0  0  0  0  0  0
  134.0822  122.6954  140.1472 C   0  0  0  0  0  0  0  0  0  0  0  0
  133.4386  121.4659  140.1965 C   0  0  0  0  0  0  0  0  0  0  0  0
  134.1213  120.3069  140.3374 N   0  0  0  0  0  0  0  0  0  0  0  0
  135.4643  120.2692  140.4388 C   0  0  0  0  0  0  0  0  0  0  0  0
  136.1223  121.4816  140.3915 C   0  0  0  0  0  0  0  0  0  0  0  0
  137.8635  121.4763  140.5177 Cl  0  0  0  0  0  0  0  0  0  0  0  0
  135.4539  122.6810  140.2486 C   0  0  0  0  0  0  0  0  0  0  0  0
  132.5249  124.5396  139.0088 C   0  0  2  0  0  0  0  0  0  0  0  0
  133.3019  125.5957  138.3335 C   0  0  0  0  0  0  0  0  0  0  0  0
  134.6753  125.5800  138.3656 C   0  0  0  0  0  0  0  0  0  0  0  0
  135.4060  126.5904  137.7254 C   0  0  0  0  0  0  0  0  0  0  0  0
  134.7538  127.6133  137.0553 C   0  0  0  0  0  0  0  0  0  0  0  0
  133.3679  127.5844  137.0518 C   0  0  0  0  0  0  0  0  0  0  0  0
  132.7051  126.5980  137.6774 N   0  0  0  0  0  0  0  0  0  0  0  0
  127.2999  124.2163  141.9987 H   0  0  0  0  0  0  0  0  0  0  0  0
  126.4964  124.8791  145.0646 H   0  0  0  0  0  0  0  0  0  0  0  0
  122.5091  126.2468  144.7655 H   0  0  0  0  0  0  0  0  0  0  0  0
  124.9778  126.0917  141.3029 H   0  0  0  0  0  0  0  0  0  0  0  0
  129.2751  125.7018  139.4523 H   0  0  0  0  0  0  0  0  0  0  0  0
  129.2559  127.3512  140.0917 H   0  0  0  0  0  0  0  0  0  0  0  0
  131.2687  126.7140  138.9384 H   0  0  0  0  0  0  0  0  0  0  0  0
  131.6565  127.2375  140.6100 H   0  0  0  0  0  0  0  0  0  0  0  0
  131.5734  123.2864  141.3359 H   0  0  0  0  0  0  0  0  0  0  0  0
  130.0932  123.7069  140.3970 H   0  0  0  0  0  0  0  0  0  0  0  0
  129.9951  124.2625  142.9393 H   0  0  0  0  0  0  0  0  0  0  0  0
  131.2401  125.5341  142.5252 H   0  0  0  0  0  0  0  0  0  0  0  0
  132.3623  121.4029  140.1229 H   0  0  0  0  0  0  0  0  0  0  0  0
  135.9796  119.3123  140.5518 H   0  0  0  0  0  0  0  0  0  0  0  0
  135.9846  123.6417  140.2111 H   0  0  0  0  0  0  0  0  0  0  0  0
  131.9813  123.8484  138.3466 H   0  0  0  0  0  0  0  0  0  0  0  0
  135.2419  124.8121  138.8703 H   0  0  0  0  0  0  0  0  0  0  0  0
  136.4804  126.6074  137.7322 H   0  0  0  0  0  0  0  0  0  0  0  0
  135.3107  128.4054  136.5520 H   0  0  0  0  0  0  0  0  0  0  0  0
  132.8463  128.3760  136.5338 H   0  0  0  0  0  0  0  0  0  0  0  0
  1  2  2  0
  2  3  1  0
  3  4  1  0
  4  5  2  0
  5  6  1  0
  6  7  1  0
  6  8  2  0
  8  9  1  0
  9 10  1  0
  9 11  2  0
  2 12  1  0
 12 13  1  0
 13 14  1  0
 14 15  1  0
 15 16  1  0
 16 17  1  0
 15 18  1  0
 18 19  2  0
 18 20  1  0
 20 21  1  0
 21 22  2  0
 22 23  1  0
 23 24  2  0
 24 25  1  0
 25 26  1  0
 25 27  2  0
 20 28  1  0
 28 29  1  0
 29 30  2  0
 30 31  1  0
 31 32  2  0
 32 33  1  0
 33 34  2  0
 11  4  1  0
 17 12  1  0
 27 21  1  0
 34 29  1  0
 28 15  1  0
  3 35  1  0
  5 36  1  0
  8 37  1  0
 11 38  1  0
 13 39  1  0
 13 40  1  0
 14 41  1  0
 14 42  1  0
 16 43  1  0
 16 44  1  0
 17 45  1  0
 17 46  1  0
 22 47  1  0
 24 48  1  0
 27 49  1  0
 28 50  1  6
 30 51  1  0
 31 52  1  0
 32 53  1  0
 33 54  1  0
M  END
>  <docking_score>  (1) 
-9.5069999999999997

$$$$

     RDKit          3D

 54 58  0  0  0  0  0  0  0  0999 V2000
  128.1969  126.8403  143.2050 O   0  0  0  0  0  0  0  0  0  0  0  0
  128.2213  125.7748  142.5200 C   0  0  0  0  0  0  0  0  0  0  0  0
  127.1379  124.9003  142.4436 N   0  0  0  0  0  0  0  0  0  0  0  0
  125.9040  125.0839  143.1060 C   0  0  0  0  0  0  0  0  0  0  0  0
  124.9445  125.9784  142.7127 C   0  0  0  0  0  0  0  0  0  0  0  0
  123.7362  126.0957  143.4093 C   0  0  0  0  0  0  0  0  0  0  0  0
  122.8220  126.9950  142.9795 F   0  0  0  0  0  0  0  0  0  0  0  0
  123.4615  125.3294  144.5046 C   0  0  0  0  0  0  0  0  0  0  0  0
  124.4121  124.4169  144.9261 C   0  0  0  0  0  0  0  0  0  0  0  0
  124.1347  123.6618  146.0108 F   0  0  0  0  0  0  0  0  0  0  0  0
  125.5864  124.3206  144.2281 C   0  0  0  0  0  0  0  0  0  0  0  0
  129.4419  125.5371  141.8336 N   0  0  0  0  0  0  0  0  0  0  0  0
  129.7276  126.2107  140.6031 C   0  0  0  0  0  0  0  0  0  0  0  0
  131.2318  126.3306  140.3809 C   0  0  0  0  0  0  0  0  0  0  0  0
  131.8367  124.9787  140.4122 C   0  0  0  0  0  0  0  0  0  0  0  0
  130.9994  123.9153  141.0787 C   0  0  0  0  0  0  0  0  0  0  0  0
  130.4440  124.5944  142.3417 C   0  0  0  0  0  0  0  0  0  0  0  0
  133.2115  124.9279  141.0397 C   0  0  0  0  0  0  0  0  0  0  0  0
  133.8688  125.5092  141.9042 O   0  0  0  0  0  0  0  0  0  0  0  0
  133.4486  123.8319  140.1349 N   0  0  0  0  0  0  0  0  0  0  0  0
  134.1646  122.6246  140.1704 C   0  0  0  0  0  0  0  0  0  0  0  0
  133.5285  121.3914  140.1158 C   0  0  0  0  0  0  0  0  0  0  0  0
  134.2189  120.2289  140.1502 N   0  0  0  0  0  0  0  0  0  0  0  0
  135.5627  120.1910  140.2392 C   0  0  0  0  0  0  0  0  0  0  0  0
  136.2133  121.4070  140.2942 C   0  0  0  0  0  0  0  0  0  0  0  0
  137.9554  121.4017  140.4083 Cl  0  0  0  0  0  0  0  0  0  0  0  0
  135.5372  122.6101  140.2613 C   0  0  0  0  0  0  0  0  0  0  0  0
  132.6076  124.5624  139.1993 C   0  0  2  0  0  0  0  0  0  0  0  0
  133.3849  125.6860  138.6438 C   0  0  0  0  0  0  0  0  0  0  0  0
  132.8487  126.4898  137.6673 C   0  0  0  0  0  0  0  0  0  0  0  0
  133.5963  127.5524  137.1413 C   0  0  0  0  0  0  0  0  0  0  0  0
  134.8803  127.8033  137.5985 C   0  0  0  0  0  0  0  0  0  0  0  0
  135.3760  126.9642  138.5843 C   0  0  0  0  0  0  0  0  0  0  0  0
  134.6271  125.9570  139.0620 N   0  0  0  0  0  0  0  0  0  0  0  0
  127.2456  124.0257  141.8481 H   0  0  0  0  0  0  0  0  0  0  0  0
  125.0654  126.6311  141.8748 H   0  0  0  0  0  0  0  0  0  0  0  0
  122.5152  125.4409  145.0274 H   0  0  0  0  0  0  0  0  0  0  0  0
  126.3272  123.6087  144.5582 H   0  0  0  0  0  0  0  0  0  0  0  0
  129.3426  125.6520  139.7101 H   0  0  0  0  0  0  0  0  0  0  0  0
  129.3011  127.2292  140.5104 H   0  0  0  0  0  0  0  0  0  0  0  0
  131.3345  126.7242  139.3281 H   0  0  0  0  0  0  0  0  0  0  0  0
  131.6954  127.0810  141.0490 H   0  0  0  0  0  0  0  0  0  0  0  0
  131.6353  123.0767  141.3762 H   0  0  0  0  0  0  0  0  0  0  0  0
  130.1644  123.5786  140.4628 H   0  0  0  0  0  0  0  0  0  0  0  0
  130.0275  123.8770  143.0462 H   0  0  0  0  0  0  0  0  0  0  0  0
  131.2674  125.1922  142.7787 H   0  0  0  0  0  0  0  0  0  0  0  0
  132.4521  121.3283  140.0438 H   0  0  0  0  0  0  0  0  0  0  0  0
  136.0843  119.2311  140.2646 H   0  0  0  0  0  0  0  0  0  0  0  0
  136.0620  123.5736  140.3048 H   0  0  0  0  0  0  0  0  0  0  0  0
  132.0788  123.9370  138.4639 H   0  0  0  0  0  0  0  0  0  0  0  0
  131.8556  126.3468  137.2690 H   0  0  0  0  0  0  0  0  0  0  0  0
  133.2065  128.1991  136.3767 H   0  0  0  0  0  0  0  0  0  0  0  0
  135.4726  128.6279  137.1982 H   0  0  0  0  0  0  0  0  0  0  0  0
  136.3759  127.1477  138.9497 H   0  0  0  0  0  0  0  0  0  0  0  0
  1  2  2  0
  2  3  1  0
  3  4  1  0
  4  5  2  0
  5  6  1  0
  6  7  1  0
  6  8  2  0
  8  9  1  0
  9 10  1  0
  9 11  2  0
  2 12  1  0
 12 13  1  0
 13 14  1  0
 14 15  1  0
 15 16  1  0
 16 17  1  0
 15 18  1  0
 18 19  2  0
 18 20  1  0
 20 21  1  0
 21 22  2  0
 22 23  1  0
 23 24  2  0
 24 25  1  0
 25 26  1  0
 25 27  2  0
 20 28  1  0
 28 29  1  0
 29 30  2  0
 30 31  1  0
 31 32  2  0
 32 33  1  0
 33 34  2  0
 11  4  1  0
 17 12  1  0
 27 21  1  0
 34 29  1  0
 28 15  1  0
  3 35  1  0
  5 36  1  0
  8 37  1  0
 11 38  1  0
 13 39  1  0
 13 40  1  0
 14 41  1  0
 14 42  1  0
 16 43  1  0
 16 44  1  0
 17 45  1  0
 17 46  1  0
 22 47  1  0
 24 48  1  0
 27 49  1  0
 28 50  1  6
 30 51  1  0
 31 52  1  0
 32 53  1  0
 33 54  1  0
M  END
>  <docking_score>  (2) 
-9.0210000000000008

$$$$

     RDKit          3D

 54 58  0  0  0  0  0  0  0  0999 V2000
  137.0492  123.9610  140.1087 O   0  0  0  0  0  0  0  0  0  0  0  0
  135.9663  123.5502  140.6224 C   0  0  0  0  0  0  0  0  0  0  0  0
  135.5559  122.2192  140.5571 N   0  0  0  0  0  0  0  0  0  0  0  0
  136.2759  121.1827  139.9230 C   0  0  0  0  0  0  0  0  0  0  0  0
  135.9982  120.7078  138.6689 C   0  0  0  0  0  0  0  0  0  0  0  0
  136.7654  119.6869  138.0959 C   0  0  0  0  0  0  0  0  0  0  0  0
  136.4490  119.2538  136.8544 F   0  0  0  0  0  0  0  0  0  0  0  0
  137.8176  119.1224  138.7566 C   0  0  0  0  0  0  0  0  0  0  0  0
  138.1220  119.5812  140.0258 C   0  0  0  0  0  0  0  0  0  0  0  0
  139.1640  119.0183  140.6747 F   0  0  0  0  0  0  0  0  0  0  0  0
  137.3568  120.5807  140.5649 C   0  0  0  0  0  0  0  0  0  0  0  0
  135.1983  124.5532  141.2717 N   0  0  0  0  0  0  0  0  0  0  0  0
  135.4919  124.9355  142.6198 C   0  0  0  0  0  0  0  0  0  0  0  0
  135.0401  126.3662  142.8940 C   0  0  0  0  0  0  0  0  0  0  0  0
  133.5928  126.4834  142.6001 C   0  0  0  0  0  0  0  0  0  0  0  0
  133.0278  125.4020  141.7126 C   0  0  0  0  0  0  0  0  0  0  0  0
  134.0778  125.2231  140.6033 C   0  0  0  0  0  0  0  0  0  0  0  0
  133.1856  127.8125  142.0051 C   0  0  0  0  0  0  0  0  0  0  0  0
  133.6520  128.7019  141.2919 O   0  0  0  0  0  0  0  0  0  0  0  0
  131.9285  127.5857  142.6717 N   0  0  0  0  0  0  0  0  0  0  0  0
  130.5765  127.8558  142.4057 C   0  0  0  0  0  0  0  0  0  0  0  0
  129.6401  126.8412  142.2571 C   0  0  0  0  0  0  0  0  0  0  0  0
  128.3380  127.1022  142.0007 N   0  0  0  0  0  0  0  0  0  0  0  0
  127.8661  128.3577  141.8732 C   0  0  0  0  0  0  0  0  0  0  0  0
  128.7818  129.3802  142.0181 C   0  0  0  0  0  0  0  0  0  0  0  0
  128.2104  131.0224  141.8618 Cl  0  0  0  0  0  0  0  0  0  0  0  0
  130.1169  129.1462  142.2798 C   0  0  0  0  0  0  0  0  0  0  0  0
  132.7192  126.9571  143.7186 C   0  0  2  0  0  0  0  0  0  0  0  0
  133.3809  128.0123  144.5084 C   0  0  0  0  0  0  0  0  0  0  0  0
  134.4331  127.7070  145.3372 C   0  0  0  0  0  0  0  0  0  0  0  0
  135.0531  128.7152  146.0882 C   0  0  0  0  0  0  0  0  0  0  0  0
  134.6130  130.0267  146.0037 C   0  0  0  0  0  0  0  0  0  0  0  0
  133.5485  130.2832  145.1537 C   0  0  0  0  0  0  0  0  0  0  0  0
  132.9823  129.2886  144.4511 N   0  0  0  0  0  0  0  0  0  0  0  0
  134.6298  121.9613  141.0121 H   0  0  0  0  0  0  0  0  0  0  0  0
  135.1906  121.0753  138.0728 H   0  0  0  0  0  0  0  0  0  0  0  0
  138.3968  118.3308  138.2886 H   0  0  0  0  0  0  0  0  0  0  0  0
  137.5951  120.9375  141.5551 H   0  0  0  0  0  0  0  0  0  0  0  0
  134.9467  124.3064  143.3713 H   0  0  0  0  0  0  0  0  0  0  0  0
  136.5593  124.8684  142.9094 H   0  0  0  0  0  0  0  0  0  0  0  0
  135.1723  126.4992  144.0069 H   0  0  0  0  0  0  0  0  0  0  0  0
  135.6928  127.1129  142.4034 H   0  0  0  0  0  0  0  0  0  0  0  0
  132.0910  125.7444  141.2638 H   0  0  0  0  0  0  0  0  0  0  0  0
  132.8938  124.4504  142.2286 H   0  0  0  0  0  0  0  0  0  0  0  0
  133.6922  124.6558  139.7583 H   0  0  0  0  0  0  0  0  0  0  0  0
  134.4229  126.2351  140.3154 H   0  0  0  0  0  0  0  0  0  0  0  0
  129.9315  125.8042  142.3433 H   0  0  0  0  0  0  0  0  0  0  0  0
  126.8068  128.5275  141.6657 H   0  0  0  0  0  0  0  0  0  0  0  0
  130.8394  129.9652  142.3945 H   0  0  0  0  0  0  0  0  0  0  0  0
  132.1915  126.1849  144.2992 H   0  0  0  0  0  0  0  0  0  0  0  0
  134.8223  126.7062  145.4476 H   0  0  0  0  0  0  0  0  0  0  0  0
  135.8777  128.5097  146.7458 H   0  0  0  0  0  0  0  0  0  0  0  0
  135.0875  130.8212  146.5822 H   0  0  0  0  0  0  0  0  0  0  0  0
  133.1946  131.3011  145.0785 H   0  0  0  0  0  0  0  0  0  0  0  0
  1  2  2  0
  2  3  1  0
  3  4  1  0
  4  5  2  0
  5  6  1  0
  6  7  1  0
  6  8  2  0
  8  9  1  0
  9 10  1  0
  9 11  2  0
  2 12  1  0
 12 13  1  0
 13 14  1  0
 14 15  1  0
 15 16  1  0
 16 17  1  0
 15 18  1  0
 18 19  2  0
 18 20  1  0
 20 21  1  0
 21 22  2  0
 22 23  1  0
 23 24  2  0
 24 25  1  0
 25 26  1  0
 25 27  2  0
 20 28  1  0
 28 29  1  0
 29 30  2  0
 30 31  1  0
 31 32  2  0
 32 33  1  0
 33 34  2  0
 11  4  1  0
 17 12  1  0
 27 21  1  0
 34 29  1  0
 28 15  1  0
  3 35  1  0
  5 36  1  0
  8 37  1  0
 11 38  1  0
 13 39  1  0
 13 40  1  0
 14 41  1  0
 14 42  1  0
 16 43  1  0
 16 44  1  0
 17 45  1  0
 17 46  1  0
 22 47  1  0
 24 48  1  0
 27 49  1  0
 28 50  1  1
 30 51  1  0
 31 52  1  0
 32 53  1  0
 33 54  1  0
M  END
>  <docking_score>  (3) 
-8.7300000000000004

$$$$
