
     RDKit          3D

 54 59  0  0  0  0  0  0  0  0999 V2000
  146.7579  135.4043  133.4080 O   0  0  0  0  0  0  0  0  0  0  0  0
  146.3755  134.6999  134.3740 C   0  0  0  0  0  0  0  0  0  0  0  0
  145.8010  134.9972  135.6250 N   0  0  0  0  0  0  0  0  0  0  0  0
  145.6128  136.1428  136.4646 C   0  0  0  0  0  0  0  0  0  0  0  0
  144.5108  136.9624  136.3280 C   0  0  0  0  0  0  0  0  0  0  0  0
  144.3224  138.0786  137.1115 C   0  0  0  0  0  0  0  0  0  0  0  0
  145.2882  138.3591  138.0557 C   0  0  0  0  0  0  0  0  0  0  0  0
  145.1206  139.4657  138.8241 F   0  0  0  0  0  0  0  0  0  0  0  0
  146.3898  137.5437  138.1962 C   0  0  0  0  0  0  0  0  0  0  0  0
  147.5845  137.9432  139.4294 Cl  0  0  0  0  0  0  0  0  0  0  0  0
  146.5604  136.4317  137.4041 C   0  0  0  0  0  0  0  0  0  0  0  0
  145.4152  133.6259  135.7734 C   0  0  1  0  0  0  0  0  0  0  0  0
  143.9673  133.5039  135.4702 C   0  0  0  0  0  0  0  0  0  0  0  0
  143.3809  134.2293  134.4447 C   0  0  0  0  0  0  0  0  0  0  0  0
  142.0301  134.0838  134.1742 C   0  0  0  0  0  0  0  0  0  0  0  0
  141.2504  133.2236  134.9150 C   0  0  0  0  0  0  0  0  0  0  0  0
  141.8695  132.5152  135.9318 C   0  0  0  0  0  0  0  0  0  0  0  0
  143.1972  132.6745  136.1774 N   0  0  0  0  0  0  0  0  0  0  0  0
  146.3401  133.2822  134.6651 C   0  0  0  0  0  0  0  0  0  0  0  0
  147.6767  132.7550  135.1001 C   0  0  0  0  0  0  0  0  0  0  0  0
  148.4191  132.0954  133.9548 C   0  0  0  0  0  0  0  0  0  0  0  0
  147.6314  130.9814  133.4801 N   0  0  0  0  0  0  0  0  0  0  0  0
  148.1218  129.9740  132.5922 C   0  0  0  0  0  0  0  0  0  0  0  0
  149.3479  129.4209  132.5323 N   0  0  0  0  0  0  0  0  0  0  0  0
  149.4163  128.4832  131.5782 C   0  0  0  0  0  0  0  0  0  0  0  0
  150.4065  127.6357  131.1066 C   0  0  0  0  0  0  0  0  0  0  0  0
  150.1940  126.7404  130.0769 C   0  0  0  0  0  0  0  0  0  0  0  0
  148.9392  126.7015  129.5069 C   0  0  0  0  0  0  0  0  0  0  0  0
  148.6272  125.5789  128.2096 Cl  0  0  0  0  0  0  0  0  0  0  0  0
  147.9484  127.5309  129.9571 C   0  0  0  0  0  0  0  0  0  0  0  0
  148.1657  128.4321  130.9935 C   0  0  0  0  0  0  0  0  0  0  0  0
  147.4031  129.3380  131.6199 N   0  0  0  0  0  0  0  0  0  0  0  0
  146.2366  130.9600  133.9524 C   0  0  0  0  0  0  0  0  0  0  0  0
  145.7305  132.3739  133.6055 C   0  0  0  0  0  0  0  0  0  0  0  0
  143.7819  136.6814  135.5595 H   0  0  0  0  0  0  0  0  0  0  0  0
  143.4465  138.7078  136.9848 H   0  0  0  0  0  0  0  0  0  0  0  0
  147.4355  135.7717  137.5012 H   0  0  0  0  0  0  0  0  0  0  0  0
  145.7250  133.1465  136.7189 H   0  0  0  0  0  0  0  0  0  0  0  0
  143.9873  134.9110  133.8529 H   0  0  0  0  0  0  0  0  0  0  0  0
  141.5817  134.6522  133.3690 H   0  0  0  0  0  0  0  0  0  0  0  0
  140.1921  133.0860  134.7280 H   0  0  0  0  0  0  0  0  0  0  0  0
  141.2458  131.8384  136.5057 H   0  0  0  0  0  0  0  0  0  0  0  0
  147.6091  132.0250  135.9399 H   0  0  0  0  0  0  0  0  0  0  0  0
  148.2878  133.6235  135.4563 H   0  0  0  0  0  0  0  0  0  0  0  0
  148.5974  132.8429  133.1807 H   0  0  0  0  0  0  0  0  0  0  0  0
  149.4095  131.7430  134.3264 H   0  0  0  0  0  0  0  0  0  0  0  0
  151.3691  127.6991  131.5822 H   0  0  0  0  0  0  0  0  0  0  0  0
  150.9386  126.0693  129.6898 H   0  0  0  0  0  0  0  0  0  0  0  0
  146.9619  127.5041  129.5119 H   0  0  0  0  0  0  0  0  0  0  0  0
  146.4141  129.5346  131.4092 H   0  0  0  0  0  0  0  0  0  0  0  0
  146.2859  130.7971  135.0446 H   0  0  0  0  0  0  0  0  0  0  0  0
  145.6470  130.1845  133.4598 H   0  0  0  0  0  0  0  0  0  0  0  0
  146.1823  132.6659  132.6408 H   0  0  0  0  0  0  0  0  0  0  0  0
  144.6456  132.3831  133.5829 H   0  0  0  0  0  0  0  0  0  0  0  0
  1  2  2  0
  2  3  1  0
  3  4  1  0
  4  5  2  0
  5  6  1  0
  6  7  2  0
  7  8  1  0
  7  9  1  0
  9 10  1  0
  9 11  2  0
  3 12  1  0
 12 13  1  0
 13 14  2  0
 14 15  1  0
 15 16  2  0
 16 17  1  0
 17 18  2  0
 12 19  1  0
 19 20  1  0
 20 21  1  0
 21 22  1  0
 22 23  1  0
 23 24  2  0
 24 25  1  0
 25 26  2  0
 26 27  1  0
 27 28  2  0
 28 29  1  0
 28 30  1  0
 30 31  2  0
 31 32  1  0
 22 33  1  0
 33 34  1  0
 19  2  1  0
 32 23  1  0
 11  4  1  0
 18 13  1  0
 34 19  1  0
 31 25  1  0
  5 35  1  0
  6 36  1  0
 11 37  1  0
 12 38  1  1
 14 39  1  0
 15 40  1  0
 16 41  1  0
 17 42  1  0
 20 43  1  0
 20 44  1  0
 21 45  1  0
 21 46  1  0
 26 47  1  0
 27 48  1  0
 30 49  1  0
 32 50  1  0
 33 51  1  0
 33 52  1  0
 34 53  1  0
 34 54  1  0
M  END
>  <docking_score>  (1) 
-9.2390000000000008

$$$$

     RDKit          3D

 54 59  0  0  0  0  0  0  0  0999 V2000
  135.2821  126.5128  141.1963 O   0  0  0  0  0  0  0  0  0  0  0  0
  134.2431  126.1505  140.5924 C   0  0  0  0  0  0  0  0  0  0  0  0
  133.6877  124.8936  140.2840 N   0  0  0  0  0  0  0  0  0  0  0  0
  134.1009  123.5217  140.2703 C   0  0  0  0  0  0  0  0  0  0  0  0
  133.1866  122.4956  140.1445 C   0  0  0  0  0  0  0  0  0  0  0  0
  133.5620  121.1710  140.1493 C   0  0  0  0  0  0  0  0  0  0  0  0
  134.9065  120.8950  140.2871 C   0  0  0  0  0  0  0  0  0  0  0  0
  135.2869  119.5920  140.3082 F   0  0  0  0  0  0  0  0  0  0  0  0
  135.8231  121.9159  140.4125 C   0  0  0  0  0  0  0  0  0  0  0  0
  137.5298  121.5040  140.5712 Cl  0  0  0  0  0  0  0  0  0  0  0  0
  135.4287  123.2341  140.4048 C   0  0  0  0  0  0  0  0  0  0  0  0
  132.4378  125.5215  139.9766 C   0  0  1  0  0  0  0  0  0  0  0  0
  131.5109  125.3199  141.1184 C   0  0  0  0  0  0  0  0  0  0  0  0
  130.1664  125.0484  140.9174 C   0  0  0  0  0  0  0  0  0  0  0  0
  129.3276  124.8494  142.0017 C   0  0  0  0  0  0  0  0  0  0  0  0
  129.8102  124.9189  143.2897 C   0  0  0  0  0  0  0  0  0  0  0  0
  131.1584  125.1923  143.4531 C   0  0  0  0  0  0  0  0  0  0  0  0
  131.9617  125.3829  142.3730 N   0  0  0  0  0  0  0  0  0  0  0  0
  133.1429  126.8266  139.9379 C   0  0  0  0  0  0  0  0  0  0  0  0
  133.5050  127.3068  138.5624 C   0  0  0  0  0  0  0  0  0  0  0  0
  133.8840  128.7746  138.5625 C   0  0  0  0  0  0  0  0  0  0  0  0
  132.7475  129.5405  139.0193 N   0  0  0  0  0  0  0  0  0  0  0  0
  132.6411  130.9615  138.9055 C   0  0  0  0  0  0  0  0  0  0  0  0
  133.4615  131.8255  138.2784 N   0  0  0  0  0  0  0  0  0  0  0  0
  133.0097  133.0832  138.3680 C   0  0  0  0  0  0  0  0  0  0  0  0
  133.4522  134.3176  137.9187 C   0  0  0  0  0  0  0  0  0  0  0  0
  132.7660  135.4905  138.1643 C   0  0  0  0  0  0  0  0  0  0  0  0
  131.5946  135.4115  138.8872 C   0  0  0  0  0  0  0  0  0  0  0  0
  130.6936  136.8687  139.2116 Cl  0  0  0  0  0  0  0  0  0  0  0  0
  131.1415  134.2027  139.3408 C   0  0  0  0  0  0  0  0  0  0  0  0
  131.8352  133.0233  139.0928 C   0  0  0  0  0  0  0  0  0  0  0  0
  131.6332  131.7365  139.4056 N   0  0  0  0  0  0  0  0  0  0  0  0
  131.6829  128.7509  139.6612 C   0  0  0  0  0  0  0  0  0  0  0  0
  132.4475  127.9327  140.7203 C   0  0  0  0  0  0  0  0  0  0  0  0
  132.1351  122.7849  140.0378 H   0  0  0  0  0  0  0  0  0  0  0  0
  132.8233  120.3815  140.0486 H   0  0  0  0  0  0  0  0  0  0  0  0
  136.1473  124.0613  140.5068 H   0  0  0  0  0  0  0  0  0  0  0  0
  132.0094  125.2665  138.9911 H   0  0  0  0  0  0  0  0  0  0  0  0
  129.7748  124.9906  139.9046 H   0  0  0  0  0  0  0  0  0  0  0  0
  128.2796  124.6347  141.8347 H   0  0  0  0  0  0  0  0  0  0  0  0
  129.1810  124.7668  144.1587 H   0  0  0  0  0  0  0  0  0  0  0  0
  131.5271  125.2409  144.4719 H   0  0  0  0  0  0  0  0  0  0  0  0
  132.6912  127.1555  137.8157 H   0  0  0  0  0  0  0  0  0  0  0  0
  134.3933  126.7183  138.2172 H   0  0  0  0  0  0  0  0  0  0  0  0
  134.7610  128.9063  139.1974 H   0  0  0  0  0  0  0  0  0  0  0  0
  134.1634  129.0719  137.5249 H   0  0  0  0  0  0  0  0  0  0  0  0
  134.3694  134.3314  137.3572 H   0  0  0  0  0  0  0  0  0  0  0  0
  133.0804  136.4619  137.8290 H   0  0  0  0  0  0  0  0  0  0  0  0
  130.2226  134.1361  139.9094 H   0  0  0  0  0  0  0  0  0  0  0  0
  130.8347  131.3707  139.9440 H   0  0  0  0  0  0  0  0  0  0  0  0
  131.2604  128.1059  138.8692 H   0  0  0  0  0  0  0  0  0  0  0  0
  130.9157  129.3835  140.1117 H   0  0  0  0  0  0  0  0  0  0  0  0
  133.2441  128.5771  141.1329 H   0  0  0  0  0  0  0  0  0  0  0  0
  131.7592  127.5751  141.4792 H   0  0  0  0  0  0  0  0  0  0  0  0
  1  2  2  0
  2  3  1  0
  3  4  1  0
  4  5  2  0
  5  6  1  0
  6  7  2  0
  7  8  1  0
  7  9  1  0
  9 10  1  0
  9 11  2  0
  3 12  1  0
 12 13  1  0
 13 14  2  0
 14 15  1  0
 15 16  2  0
 16 17  1  0
 17 18  2  0
 12 19  1  0
 19 20  1  0
 20 21  1  0
 21 22  1  0
 22 23  1  0
 23 24  2  0
 24 25  1  0
 25 26  2  0
 26 27  1  0
 27 28  2  0
 28 29  1  0
 28 30  1  0
 30 31  2  0
 31 32  1  0
 22 33  1  0
 33 34  1  0
 19  2  1  0
 32 23  1  0
 11  4  1  0
 18 13  1  0
 34 19  1  0
 31 25  1  0
  5 35  1  0
  6 36  1  0
 11 37  1  0
 12 38  1  6
 14 39  1  0
 15 40  1  0
 16 41  1  0
 17 42  1  0
 20 43  1  0
 20 44  1  0
 21 45  1  0
 21 46  1  0
 26 47  1  0
 27 48  1  0
 30 49  1  0
 32 50  1  0
 33 51  1  0
 33 52  1  0
 34 53  1  0
 34 54  1  0
M  END
>  <docking_score>  (2) 
-8.9199999999999999

$$$$

     RDKit          3D

 54 59  0  0  0  0  0  0  0  0999 V2000
  128.7064  136.1591  138.6946 O   0  0  0  0  0  0  0  0  0  0  0  0
  129.7755  136.3938  139.3089 C   0  0  0  0  0  0  0  0  0  0  0  0
  130.2505  137.4967  140.0447 N   0  0  0  0  0  0  0  0  0  0  0  0
  129.9081  138.8745  140.2379 C   0  0  0  0  0  0  0  0  0  0  0  0
  130.7835  139.8877  139.9031 C   0  0  0  0  0  0  0  0  0  0  0  0
  130.4809  141.2163  140.0997 C   0  0  0  0  0  0  0  0  0  0  0  0
  129.2518  141.5100  140.6529 C   0  0  0  0  0  0  0  0  0  0  0  0
  128.9483  142.8161  140.8651 F   0  0  0  0  0  0  0  0  0  0  0  0
  128.3743  140.5022  140.9882 C   0  0  0  0  0  0  0  0  0  0  0  0
  126.8119  140.9375  141.6786 Cl  0  0  0  0  0  0  0  0  0  0  0  0
  128.6945  139.1797  140.7836 C   0  0  0  0  0  0  0  0  0  0  0  0
  131.2849  136.6784  140.6030 C   0  0  1  0  0  0  0  0  0  0  0  0
  130.8980  136.3001  141.9852 C   0  0  0  0  0  0  0  0  0  0  0  0
  129.5693  136.1296  142.3418 C   0  0  0  0  0  0  0  0  0  0  0  0
  129.2384  135.7612  143.6355 C   0  0  0  0  0  0  0  0  0  0  0  0
  130.2161  135.5609  144.5846 C   0  0  0  0  0  0  0  0  0  0  0  0
  131.5328  135.7403  144.1932 C   0  0  0  0  0  0  0  0  0  0  0  0
  131.8324  136.1012  142.9171 N   0  0  0  0  0  0  0  0  0  0  0  0
  131.0044  135.6684  139.5527 C   0  0  0  0  0  0  0  0  0  0  0  0
  131.9346  135.7087  138.3750 C   0  0  0  0  0  0  0  0  0  0  0  0
  131.8282  134.4525  137.5332 C   0  0  0  0  0  0  0  0  0  0  0  0
  132.1926  133.3202  138.3529 N   0  0  0  0  0  0  0  0  0  0  0  0
  132.4604  132.0130  137.8400 C   0  0  0  0  0  0  0  0  0  0  0  0
  132.7968  131.6457  136.5891 N   0  0  0  0  0  0  0  0  0  0  0  0
  132.9959  130.3239  136.5033 C   0  0  0  0  0  0  0  0  0  0  0  0
  133.3456  129.4498  135.4861 C   0  0  0  0  0  0  0  0  0  0  0  0
  133.4839  128.0903  135.6855 C   0  0  0  0  0  0  0  0  0  0  0  0
  133.2617  127.6003  136.9549 C   0  0  0  0  0  0  0  0  0  0  0  0
  133.4344  125.8905  137.2505 Cl  0  0  0  0  0  0  0  0  0  0  0  0
  132.9143  128.4466  137.9725 C   0  0  0  0  0  0  0  0  0  0  0  0
  132.7748  129.8149  137.7685 C   0  0  0  0  0  0  0  0  0  0  0  0
  132.4539  130.8497  138.5564 N   0  0  0  0  0  0  0  0  0  0  0  0
  132.2417  133.5901  139.7999 C   0  0  0  0  0  0  0  0  0  0  0  0
  130.8743  134.2448  140.0778 C   0  0  0  0  0  0  0  0  0  0  0  0
  131.7421  139.5846  139.4671 H   0  0  0  0  0  0  0  0  0  0  0  0
  131.1867  141.9954  139.8278 H   0  0  0  0  0  0  0  0  0  0  0  0
  128.0067  138.3626  141.0484 H   0  0  0  0  0  0  0  0  0  0  0  0
  132.3091  137.0811  140.5103 H   0  0  0  0  0  0  0  0  0  0  0  0
  128.7891  136.2845  141.6003 H   0  0  0  0  0  0  0  0  0  0  0  0
  128.1979  135.6272  143.9039 H   0  0  0  0  0  0  0  0  0  0  0  0
  129.9906  135.2710  145.6040 H   0  0  0  0  0  0  0  0  0  0  0  0
  132.2937  135.5762  144.9484 H   0  0  0  0  0  0  0  0  0  0  0  0
  133.0025  135.8477  138.6630 H   0  0  0  0  0  0  0  0  0  0  0  0
  131.6409  136.5810  137.7366 H   0  0  0  0  0  0  0  0  0  0  0  0
  130.8112  134.3797  137.1456 H   0  0  0  0  0  0  0  0  0  0  0  0
  132.5210  134.5445  136.6644 H   0  0  0  0  0  0  0  0  0  0  0  0
  133.5112  129.8763  134.5127 H   0  0  0  0  0  0  0  0  0  0  0  0
  133.7552  127.3868  134.9198 H   0  0  0  0  0  0  0  0  0  0  0  0
  132.7382  128.0660  138.9706 H   0  0  0  0  0  0  0  0  0  0  0  0
  132.2337  130.7899  139.5610 H   0  0  0  0  0  0  0  0  0  0  0  0
  133.0758  134.2996  139.9507 H   0  0  0  0  0  0  0  0  0  0  0  0
  132.3827  132.6789  140.3841 H   0  0  0  0  0  0  0  0  0  0  0  0
  130.1244  133.7407  139.4426 H   0  0  0  0  0  0  0  0  0  0  0  0
  130.6419  134.1809  141.1358 H   0  0  0  0  0  0  0  0  0  0  0  0
  1  2  2  0
  2  3  1  0
  3  4  1  0
  4  5  2  0
  5  6  1  0
  6  7  2  0
  7  8  1  0
  7  9  1  0
  9 10  1  0
  9 11  2  0
  3 12  1  0
 12 13  1  0
 13 14  2  0
 14 15  1  0
 15 16  2  0
 16 17  1  0
 17 18  2  0
 12 19  1  0
 19 20  1  0
 20 21  1  0
 21 22  1  0
 22 23  1  0
 23 24  2  0
 24 25  1  0
 25 26  2  0
 26 27  1  0
 27 28  2  0
 28 29  1  0
 28 30  1  0
 30 31  2  0
 31 32  1  0
 22 33  1  0
 33 34  1  0
 19  2  1  0
 32 23  1  0
 11  4  1  0
 18 13  1  0
 34 19  1  0
 31 25  1  0
  5 35  1  0
  6 36  1  0
 11 37  1  0
 12 38  1  1
 14 39  1  0
 15 40  1  0
 16 41  1  0
 17 42  1  0
 20 43  1  0
 20 44  1  0
 21 45  1  0
 21 46  1  0
 26 47  1  0
 27 48  1  0
 30 49  1  0
 32 50  1  0
 33 51  1  0
 33 52  1  0
 34 53  1  0
 34 54  1  0
M  END
>  <docking_score>  (3) 
-8.8840000000000003

$$$$
