
     RDKit          3D

 67 69  0  0  0  0  0  0  0  0999 V2000
  132.9605  134.7299  136.8394 C   0  0  0  0  0  0  0  0  0  0  0  0
  134.1805  133.9903  136.3520 C   0  0  0  0  0  0  0  0  0  0  0  0
  133.9142  132.5455  136.0716 C   0  0  2  0  0  0  0  0  0  0  0  0
  132.5329  132.1974  136.5775 C   0  0  0  0  0  0  0  0  0  0  0  0
  134.9631  131.6216  136.6446 C   0  0  2  0  0  0  0  0  0  0  0  0
  136.2246  131.9836  135.9962 N   0  0  0  0  0  0  0  0  0  0  0  0
  137.4448  132.0828  136.7290 C   0  0  0  0  0  0  0  0  0  0  0  0
  137.3502  131.8383  137.9628 O   0  0  0  0  0  0  0  0  0  0  0  0
  138.6761  132.4232  136.1613 N   0  0  0  0  0  0  0  0  0  0  0  0
  138.9388  133.5641  135.3070 C   0  0  0  0  0  0  0  0  0  0  0  0
  139.9778  134.3898  136.0335 C   0  0  0  0  0  0  0  0  0  0  0  0
  141.2576  133.6117  136.2244 C   0  0  0  0  0  0  0  0  0  0  0  0
  141.0942  132.2056  135.8258 C   0  0  0  0  0  0  0  0  0  0  0  0
  139.8313  131.5885  136.4277 C   0  0  0  0  0  0  0  0  0  0  0  0
  141.7845  133.8515  137.6561 C   0  0  0  0  0  0  0  0  0  0  0  0
  142.6815  134.7348  137.1246 N   0  0  0  0  0  0  0  0  0  0  0  0
  143.6246  135.5445  137.6408 C   0  0  0  0  0  0  0  0  0  0  0  0
  143.9593  136.6634  136.6377 C   0  0  0  0  0  0  0  0  0  0  0  0
  143.3731  136.2222  138.9599 C   0  0  0  0  0  0  0  0  0  0  0  0
  142.4786  134.3527  135.7863 C   0  0  1  0  0  0  0  0  0  0  0  0
  143.5450  133.6643  135.0760 C   0  0  0  0  0  0  0  0  0  0  0  0
  143.8757  134.0062  133.7665 C   0  0  0  0  0  0  0  0  0  0  0  0
  144.8683  133.3940  133.0600 C   0  0  0  0  0  0  0  0  0  0  0  0
  145.6023  132.3927  133.6158 C   0  0  0  0  0  0  0  0  0  0  0  0
  146.8755  131.6139  132.6974 Cl  0  0  0  0  0  0  0  0  0  0  0  0
  145.3138  132.0086  134.9269 C   0  0  0  0  0  0  0  0  0  0  0  0
  144.3039  132.6456  135.6190 C   0  0  0  0  0  0  0  0  0  0  0  0
  134.6569  130.1953  136.4453 C   0  0  0  0  0  0  0  0  0  0  0  0
  134.8479  129.3836  137.4104 O   0  0  0  0  0  0  0  0  0  0  0  0
  134.1752  129.6857  135.2750 O   0  0  0  0  0  0  0  0  0  0  0  0
  134.1325  128.3044  134.9646 C   0  0  0  0  0  0  0  0  0  0  0  0
  132.0542  134.1506  136.5432 H   0  0  0  0  0  0  0  0  0  0  0  0
  132.9315  135.7796  136.5545 H   0  0  0  0  0  0  0  0  0  0  0  0
  132.9803  134.6828  137.9539 H   0  0  0  0  0  0  0  0  0  0  0  0
  134.6555  134.5167  135.4772 H   0  0  0  0  0  0  0  0  0  0  0  0
  134.9376  134.0338  137.1653 H   0  0  0  0  0  0  0  0  0  0  0  0
  133.9524  132.4144  134.9665 H   0  0  0  0  0  0  0  0  0  0  0  0
  132.0330  131.4880  135.8824 H   0  0  0  0  0  0  0  0  0  0  0  0
  132.6333  131.7487  137.6013 H   0  0  0  0  0  0  0  0  0  0  0  0
  131.9138  133.1112  136.6258 H   0  0  0  0  0  0  0  0  0  0  0  0
  135.0644  131.8539  137.7051 H   0  0  0  0  0  0  0  0  0  0  0  0
  136.2616  132.1790  134.9752 H   0  0  0  0  0  0  0  0  0  0  0  0
  139.4379  133.1419  134.3890 H   0  0  0  0  0  0  0  0  0  0  0  0
  138.0461  134.1493  135.0464 H   0  0  0  0  0  0  0  0  0  0  0  0
  139.5836  134.7767  136.9958 H   0  0  0  0  0  0  0  0  0  0  0  0
  140.2153  135.2689  135.3826 H   0  0  0  0  0  0  0  0  0  0  0  0
  141.9162  131.5442  136.2315 H   0  0  0  0  0  0  0  0  0  0  0  0
  141.1250  132.0619  134.7407 H   0  0  0  0  0  0  0  0  0  0  0  0
  139.9907  131.6488  137.5438 H   0  0  0  0  0  0  0  0  0  0  0  0
  139.7038  130.5452  136.1254 H   0  0  0  0  0  0  0  0  0  0  0  0
  142.0873  132.8915  138.1074 H   0  0  0  0  0  0  0  0  0  0  0  0
  141.0108  134.3131  138.3144 H   0  0  0  0  0  0  0  0  0  0  0  0
  144.6069  134.9988  137.7719 H   0  0  0  0  0  0  0  0  0  0  0  0
  143.1270  136.8457  135.9559 H   0  0  0  0  0  0  0  0  0  0  0  0
  144.1971  137.5853  137.2062 H   0  0  0  0  0  0  0  0  0  0  0  0
  144.8888  136.3361  136.1226 H   0  0  0  0  0  0  0  0  0  0  0  0
  142.6455  135.6546  139.5757 H   0  0  0  0  0  0  0  0  0  0  0  0
  143.0931  137.2848  138.8776 H   0  0  0  0  0  0  0  0  0  0  0  0
  144.3246  136.2141  139.5655 H   0  0  0  0  0  0  0  0  0  0  0  0
  142.1597  135.2684  135.1999 H   0  0  0  0  0  0  0  0  0  0  0  0
  143.3194  134.7964  133.2826 H   0  0  0  0  0  0  0  0  0  0  0  0
  145.1185  133.6756  132.0248 H   0  0  0  0  0  0  0  0  0  0  0  0
  145.9143  131.2103  135.3417 H   0  0  0  0  0  0  0  0  0  0  0  0
  144.1257  132.3110  136.6298 H   0  0  0  0  0  0  0  0  0  0  0  0
  135.0621  127.7871  135.3104 H   0  0  0  0  0  0  0  0  0  0  0  0
  133.3054  127.8699  135.5974 H   0  0  0  0  0  0  0  0  0  0  0  0
  133.9807  128.1216  133.8984 H   0  0  0  0  0  0  0  0  0  0  0  0
  1  2  1  0
  2  3  1  0
  3  4  1  0
  3  5  1  0
  5  6  1  0
  6  7  1  0
  7  8  2  0
  7  9  1  0
  9 10  1  0
 10 11  1  0
 11 12  1  0
 12 13  1  0
 13 14  1  0
 12 15  1  0
 15 16  1  0
 16 17  1  0
 17 18  1  0
 17 19  1  0
 16 20  1  0
 20 21  1  0
 21 22  2  0
 22 23  1  0
 23 24  2  0
 24 25  1  0
 24 26  1  0
 26 27  2  0
  5 28  1  0
 28 29  2  0
 28 30  1  0
 30 31  1  0
 14  9  1  0
 27 21  1  0
 20 12  1  0
  1 32  1  0
  1 33  1  0
  1 34  1  0
  2 35  1  0
  2 36  1  0
  3 37  1  6
  4 38  1  0
  4 39  1  0
  4 40  1  0
  5 41  1  1
  6 42  1  0
 10 43  1  0
 10 44  1  0
 11 45  1  0
 11 46  1  0
 13 47  1  0
 13 48  1  0
 14 49  1  0
 14 50  1  0
 15 51  1  0
 15 52  1  0
 17 53  1  0
 18 54  1  0
 18 55  1  0
 18 56  1  0
 19 57  1  0
 19 58  1  0
 19 59  1  0
 20 60  1  6
 22 61  1  0
 23 62  1  0
 26 63  1  0
 27 64  1  0
 31 65  1  0
 31 66  1  0
 31 67  1  0
M  END
>  <docking_score>  (1) 
-6.6900000000000004

$$$$

     RDKit          3D

 67 69  0  0  0  0  0  0  0  0999 V2000
  133.0612  134.6734  135.5566 C   0  0  0  0  0  0  0  0  0  0  0  0
  131.9306  133.6762  135.5621 C   0  0  0  0  0  0  0  0  0  0  0  0
  132.3274  132.3466  136.1205 C   0  0  2  0  0  0  0  0  0  0  0  0
  131.5668  131.2642  135.3890 C   0  0  0  0  0  0  0  0  0  0  0  0
  132.1362  132.2443  137.6155 C   0  0  2  0  0  0  0  0  0  0  0  0
  131.7644  133.5844  138.0725 N   0  0  0  0  0  0  0  0  0  0  0  0
  130.6500  133.8013  138.9368 C   0  0  0  0  0  0  0  0  0  0  0  0
  130.0196  132.7607  139.2696 O   0  0  0  0  0  0  0  0  0  0  0  0
  130.2514  135.0572  139.4037 N   0  0  0  0  0  0  0  0  0  0  0  0
  128.9150  135.4302  139.8228 C   0  0  0  0  0  0  0  0  0  0  0  0
  129.0407  135.8451  141.2723 C   0  0  0  0  0  0  0  0  0  0  0  0
  129.9550  137.0374  141.4215 C   0  0  0  0  0  0  0  0  0  0  0  0
  130.6252  137.3607  140.1530 C   0  0  0  0  0  0  0  0  0  0  0  0
  131.2339  136.1190  139.5007 C   0  0  0  0  0  0  0  0  0  0  0  0
  130.8807  136.8137  142.6371 C   0  0  0  0  0  0  0  0  0  0  0  0
  130.0669  137.6502  143.3480 N   0  0  0  0  0  0  0  0  0  0  0  0
  130.0396  138.0779  144.6238 C   0  0  0  0  0  0  0  0  0  0  0  0
  129.1753  137.1299  145.4749 C   0  0  0  0  0  0  0  0  0  0  0  0
  131.3335  138.2534  145.3706 C   0  0  0  0  0  0  0  0  0  0  0  0
  129.3659  138.1445  142.2334 C   0  0  1  0  0  0  0  0  0  0  0  0
  129.5524  139.5314  141.8364 C   0  0  0  0  0  0  0  0  0  0  0  0
  128.7131  140.1315  140.9002 C   0  0  0  0  0  0  0  0  0  0  0  0
  128.8444  141.4279  140.4982 C   0  0  0  0  0  0  0  0  0  0  0  0
  129.8285  142.2176  141.0062 C   0  0  0  0  0  0  0  0  0  0  0  0
  129.9867  143.8822  140.4816 Cl  0  0  0  0  0  0  0  0  0  0  0  0
  130.6994  141.6677  141.9489 C   0  0  0  0  0  0  0  0  0  0  0  0
  130.5434  140.3528  142.3381 C   0  0  0  0  0  0  0  0  0  0  0  0
  133.3305  131.7567  138.3251 C   0  0  0  0  0  0  0  0  0  0  0  0
  133.9065  132.5267  139.1631 O   0  0  0  0  0  0  0  0  0  0  0  0
  133.8631  130.5149  138.1364 O   0  0  0  0  0  0  0  0  0  0  0  0
  135.1061  130.2681  137.5036 C   0  0  0  0  0  0  0  0  0  0  0  0
  134.0252  134.1145  135.5021 H   0  0  0  0  0  0  0  0  0  0  0  0
  133.0150  135.4051  136.3606 H   0  0  0  0  0  0  0  0  0  0  0  0
  132.9955  135.2282  134.5909 H   0  0  0  0  0  0  0  0  0  0  0  0
  131.0161  134.0976  136.0663 H   0  0  0  0  0  0  0  0  0  0  0  0
  131.6315  133.5129  134.5036 H   0  0  0  0  0  0  0  0  0  0  0  0
  133.4191  132.2271  135.9362 H   0  0  0  0  0  0  0  0  0  0  0  0
  131.2336  131.6300  134.3933 H   0  0  0  0  0  0  0  0  0  0  0  0
  132.2376  130.3708  135.2816 H   0  0  0  0  0  0  0  0  0  0  0  0
  130.6644  130.9907  135.9645 H   0  0  0  0  0  0  0  0  0  0  0  0
  131.2822  131.5909  137.7956 H   0  0  0  0  0  0  0  0  0  0  0  0
  132.3094  134.4187  137.7749 H   0  0  0  0  0  0  0  0  0  0  0  0
  128.6656  136.3592  139.2356 H   0  0  0  0  0  0  0  0  0  0  0  0
  128.1594  134.6463  139.6756 H   0  0  0  0  0  0  0  0  0  0  0  0
  129.3651  134.9953  141.9077 H   0  0  0  0  0  0  0  0  0  0  0  0
  128.0228  136.1599  141.6153 H   0  0  0  0  0  0  0  0  0  0  0  0
  131.5212  138.0343  140.2983 H   0  0  0  0  0  0  0  0  0  0  0  0
  129.9780  137.8978  139.4517 H   0  0  0  0  0  0  0  0  0  0  0  0
  131.9964  135.7513  140.2478 H   0  0  0  0  0  0  0  0  0  0  0  0
  131.7255  136.3562  138.5529 H   0  0  0  0  0  0  0  0  0  0  0  0
  131.9182  137.0756  142.3687 H   0  0  0  0  0  0  0  0  0  0  0  0
  130.8708  135.7520  142.9803 H   0  0  0  0  0  0  0  0  0  0  0  0
  129.5109  139.0743  144.7113 H   0  0  0  0  0  0  0  0  0  0  0  0
  129.6153  136.9713  146.4608 H   0  0  0  0  0  0  0  0  0  0  0  0
  128.1631  137.5716  145.5743 H   0  0  0  0  0  0  0  0  0  0  0  0
  129.0784  136.1962  144.8789 H   0  0  0  0  0  0  0  0  0  0  0  0
  131.1781  138.2081  146.4681 H   0  0  0  0  0  0  0  0  0  0  0  0
  131.9078  139.1473  145.0787 H   0  0  0  0  0  0  0  0  0  0  0  0
  132.0110  137.3806  145.1437 H   0  0  0  0  0  0  0  0  0  0  0  0
  128.2624  137.9377  142.3873 H   0  0  0  0  0  0  0  0  0  0  0  0
  127.9162  139.5429  140.4682 H   0  0  0  0  0  0  0  0  0  0  0  0
  128.1726  141.8888  139.7568 H   0  0  0  0  0  0  0  0  0  0  0  0
  131.4711  142.3199  142.3349 H   0  0  0  0  0  0  0  0  0  0  0  0
  131.2421  139.9802  143.0718 H   0  0  0  0  0  0  0  0  0  0  0  0
  135.3512  129.1767  137.5141 H   0  0  0  0  0  0  0  0  0  0  0  0
  134.9552  130.5218  136.4146 H   0  0  0  0  0  0  0  0  0  0  0  0
  135.9229  130.8364  137.9542 H   0  0  0  0  0  0  0  0  0  0  0  0
  1  2  1  0
  2  3  1  0
  3  4  1  0
  3  5  1  0
  5  6  1  0
  6  7  1  0
  7  8  2  0
  7  9  1  0
  9 10  1  0
 10 11  1  0
 11 12  1  0
 12 13  1  0
 13 14  1  0
 12 15  1  0
 15 16  1  0
 16 17  1  0
 17 18  1  0
 17 19  1  0
 16 20  1  0
 20 21  1  0
 21 22  2  0
 22 23  1  0
 23 24  2  0
 24 25  1  0
 24 26  1  0
 26 27  2  0
  5 28  1  0
 28 29  2  0
 28 30  1  0
 30 31  1  0
 14  9  1  0
 27 21  1  0
 20 12  1  0
  1 32  1  0
  1 33  1  0
  1 34  1  0
  2 35  1  0
  2 36  1  0
  3 37  1  1
  4 38  1  0
  4 39  1  0
  4 40  1  0
  5 41  1  6
  6 42  1  0
 10 43  1  0
 10 44  1  0
 11 45  1  0
 11 46  1  0
 13 47  1  0
 13 48  1  0
 14 49  1  0
 14 50  1  0
 15 51  1  0
 15 52  1  0
 17 53  1  0
 18 54  1  0
 18 55  1  0
 18 56  1  0
 19 57  1  0
 19 58  1  0
 19 59  1  0
 20 60  1  1
 22 61  1  0
 23 62  1  0
 26 63  1  0
 27 64  1  0
 31 65  1  0
 31 66  1  0
 31 67  1  0
M  END
>  <docking_score>  (2) 
-6.1929999999999996

$$$$

     RDKit          3D

 67 69  0  0  0  0  0  0  0  0999 V2000
  137.1951  130.4836  137.9234 C   0  0  0  0  0  0  0  0  0  0  0  0
  137.3382  130.9579  139.3473 C   0  0  0  0  0  0  0  0  0  0  0  0
  138.7508  131.2834  139.7151 C   0  0  2  0  0  0  0  0  0  0  0  0
  138.9278  131.0749  141.2018 C   0  0  0  0  0  0  0  0  0  0  0  0
  139.1734  132.6721  139.2964 C   0  0  2  0  0  0  0  0  0  0  0  0
  140.3640  132.5025  138.4618 N   0  0  0  0  0  0  0  0  0  0  0  0
  140.3153  132.6525  137.0437 C   0  0  0  0  0  0  0  0  0  0  0  0
  139.1800  132.9376  136.5738 O   0  0  0  0  0  0  0  0  0  0  0  0
  141.4198  132.5030  136.2000 N   0  0  0  0  0  0  0  0  0  0  0  0
  141.4694  132.8286  134.7886 C   0  0  0  0  0  0  0  0  0  0  0  0
  142.5446  133.8838  134.6488 C   0  0  0  0  0  0  0  0  0  0  0  0
  143.8905  133.3521  135.0796 C   0  0  0  0  0  0  0  0  0  0  0  0
  143.7692  132.0215  135.6940 C   0  0  0  0  0  0  0  0  0  0  0  0
  142.6583  131.9808  136.7439 C   0  0  0  0  0  0  0  0  0  0  0  0
  144.6085  134.4250  135.9270 C   0  0  0  0  0  0  0  0  0  0  0  0
  145.3504  134.7309  134.8210 N   0  0  0  0  0  0  0  0  0  0  0  0
  146.3006  135.6440  134.5474 C   0  0  0  0  0  0  0  0  0  0  0  0
  147.4911  135.4636  135.5067 C   0  0  0  0  0  0  0  0  0  0  0  0
  146.8820  135.7108  133.1617 C   0  0  0  0  0  0  0  0  0  0  0  0
  144.9760  133.5942  134.0821 C   0  0  1  0  0  0  0  0  0  0  0  0
  145.9695  132.5677  133.8082 C   0  0  0  0  0  0  0  0  0  0  0  0
  146.8322  132.1163  134.8048 C   0  0  0  0  0  0  0  0  0  0  0  0
  147.7769  131.1547  134.5991 C   0  0  0  0  0  0  0  0  0  0  0  0
  147.9256  130.5754  133.3775 C   0  0  0  0  0  0  0  0  0  0  0  0
  149.1434  129.3405  133.1261 Cl  0  0  0  0  0  0  0  0  0  0  0  0
  147.0871  130.9898  132.3408 C   0  0  0  0  0  0  0  0  0  0  0  0
  146.1392  131.9647  132.5769 C   0  0  0  0  0  0  0  0  0  0  0  0
  139.4480  133.5668  140.4329 C   0  0  0  0  0  0  0  0  0  0  0  0
  138.4828  134.2228  140.9476 O   0  0  0  0  0  0  0  0  0  0  0  0
  140.6889  133.7368  140.9738 O   0  0  0  0  0  0  0  0  0  0  0  0
  140.9302  134.0407  142.3360 C   0  0  0  0  0  0  0  0  0  0  0  0
  136.4230  129.6789  137.8947 H   0  0  0  0  0  0  0  0  0  0  0  0
  138.1354  130.2166  137.4453 H   0  0  0  0  0  0  0  0  0  0  0  0
  136.7510  131.3289  137.3464 H   0  0  0  0  0  0  0  0  0  0  0  0
  136.6308  131.8055  139.5690 H   0  0  0  0  0  0  0  0  0  0  0  0
  137.0102  130.1239  140.0057 H   0  0  0  0  0  0  0  0  0  0  0  0
  139.4054  130.5761  139.1573 H   0  0  0  0  0  0  0  0  0  0  0  0
  139.1531  132.0408  141.7046 H   0  0  0  0  0  0  0  0  0  0  0  0
  137.9854  130.6228  141.6107 H   0  0  0  0  0  0  0  0  0  0  0  0
  139.7805  130.3963  141.3829 H   0  0  0  0  0  0  0  0  0  0  0  0
  138.3865  133.0795  138.6610 H   0  0  0  0  0  0  0  0  0  0  0  0
  141.2833  132.2664  138.8873 H   0  0  0  0  0  0  0  0  0  0  0  0
  141.8533  131.8990  134.2802 H   0  0  0  0  0  0  0  0  0  0  0  0
  140.5084  133.1512  134.3647 H   0  0  0  0  0  0  0  0  0  0  0  0
  142.2733  134.8100  135.1961 H   0  0  0  0  0  0  0  0  0  0  0  0
  142.6186  134.1380  133.5612 H   0  0  0  0  0  0  0  0  0  0  0  0
  144.6877  131.7354  136.2874 H   0  0  0  0  0  0  0  0  0  0  0  0
  143.6464  131.2198  134.9583 H   0  0  0  0  0  0  0  0  0  0  0  0
  142.9791  132.7300  137.5252 H   0  0  0  0  0  0  0  0  0  0  0  0
  142.5611  130.9896  137.1959 H   0  0  0  0  0  0  0  0  0  0  0  0
  145.0432  133.9592  136.8276 H   0  0  0  0  0  0  0  0  0  0  0  0
  143.9120  135.2314  136.2580 H   0  0  0  0  0  0  0  0  0  0  0  0
  145.9366  136.6928  134.7655 H   0  0  0  0  0  0  0  0  0  0  0  0
  148.1532  134.6644  135.1697 H   0  0  0  0  0  0  0  0  0  0  0  0
  148.0458  136.4221  135.5622 H   0  0  0  0  0  0  0  0  0  0  0  0
  147.0441  135.2747  136.5071 H   0  0  0  0  0  0  0  0  0  0  0  0
  147.7309  136.4232  133.1116 H   0  0  0  0  0  0  0  0  0  0  0  0
  146.1422  135.9049  132.3685 H   0  0  0  0  0  0  0  0  0  0  0  0
  147.3353  134.7107  132.9039 H   0  0  0  0  0  0  0  0  0  0  0  0
  144.5083  133.9407  133.1098 H   0  0  0  0  0  0  0  0  0  0  0  0
  146.7517  132.5479  135.7924 H   0  0  0  0  0  0  0  0  0  0  0  0
  148.4520  130.8077  135.3974 H   0  0  0  0  0  0  0  0  0  0  0  0
  147.2288  130.5108  131.3814 H   0  0  0  0  0  0  0  0  0  0  0  0
  145.5159  132.2447  131.7411 H   0  0  0  0  0  0  0  0  0  0  0  0
  141.9966  134.3374  142.4974 H   0  0  0  0  0  0  0  0  0  0  0  0
  140.3327  134.9722  142.5563 H   0  0  0  0  0  0  0  0  0  0  0  0
  140.6705  133.2130  142.9998 H   0  0  0  0  0  0  0  0  0  0  0  0
  1  2  1  0
  2  3  1  0
  3  4  1  0
  3  5  1  0
  5  6  1  0
  6  7  1  0
  7  8  2  0
  7  9  1  0
  9 10  1  0
 10 11  1  0
 11 12  1  0
 12 13  1  0
 13 14  1  0
 12 15  1  0
 15 16  1  0
 16 17  1  0
 17 18  1  0
 17 19  1  0
 16 20  1  0
 20 21  1  0
 21 22  2  0
 22 23  1  0
 23 24  2  0
 24 25  1  0
 24 26  1  0
 26 27  2  0
  5 28  1  0
 28 29  2  0
 28 30  1  0
 30 31  1  0
 14  9  1  0
 27 21  1  0
 20 12  1  0
  1 32  1  0
  1 33  1  0
  1 34  1  0
  2 35  1  0
  2 36  1  0
  3 37  1  6
  4 38  1  0
  4 39  1  0
  4 40  1  0
  5 41  1  6
  6 42  1  0
 10 43  1  0
 10 44  1  0
 11 45  1  0
 11 46  1  0
 13 47  1  0
 13 48  1  0
 14 49  1  0
 14 50  1  0
 15 51  1  0
 15 52  1  0
 17 53  1  0
 18 54  1  0
 18 55  1  0
 18 56  1  0
 19 57  1  0
 19 58  1  0
 19 59  1  0
 20 60  1  6
 22 61  1  0
 23 62  1  0
 26 63  1  0
 27 64  1  0
 31 65  1  0
 31 66  1  0
 31 67  1  0
M  END
>  <docking_score>  (3) 
-6.1429999999999998

$$$$
