
     RDKit          3D

 56 60  0  0  0  0  0  0  0  0999 V2000
  134.6190  120.7900  140.7326 O   0  0  0  0  0  0  0  0  0  0  0  0
  134.9625  121.6788  139.9318 C   0  0  0  0  0  0  0  0  0  0  0  0
  135.9308  121.3901  138.9493 N   0  0  0  0  0  0  0  0  0  0  0  0
  136.5844  120.1432  138.7500 C   0  0  0  0  0  0  0  0  0  0  0  0
  137.7654  119.7857  139.3490 C   0  0  0  0  0  0  0  0  0  0  0  0
  138.3167  118.5479  139.0735 C   0  0  0  0  0  0  0  0  0  0  0  0
  137.7212  117.6571  138.2169 C   0  0  0  0  0  0  0  0  0  0  0  0
  138.2791  116.4562  137.9646 F   0  0  0  0  0  0  0  0  0  0  0  0
  136.5312  118.0205  137.6155 C   0  0  0  0  0  0  0  0  0  0  0  0
  135.9637  117.1109  136.7685 F   0  0  0  0  0  0  0  0  0  0  0  0
  135.9875  119.2360  137.8839 C   0  0  0  0  0  0  0  0  0  0  0  0
  134.3748  123.0036  140.0027 N   0  0  0  0  0  0  0  0  0  0  0  0
  135.2403  124.0636  140.3236 C   0  0  0  0  0  0  0  0  0  0  0  0
  134.7930  125.4682  140.2344 C   0  0  0  0  0  0  0  0  0  0  0  0
  133.3947  125.6250  139.7874 C   0  0  0  0  0  0  0  0  0  0  0  0
  132.4979  124.4932  140.2669 C   0  0  0  0  0  0  0  0  0  0  0  0
  132.9777  123.1675  139.7624 C   0  0  0  0  0  0  0  0  0  0  0  0
  133.3005  125.8927  138.3327 C   0  0  0  0  0  0  0  0  0  0  0  0
  133.2936  125.2018  137.2893 O   0  0  0  0  0  0  0  0  0  0  0  0
  133.2214  127.2711  138.6338 N   0  0  0  0  0  0  0  0  0  0  0  0
  133.5574  128.4293  137.8687 C   0  0  0  0  0  0  0  0  0  0  0  0
  134.8150  128.9763  137.9426 C   0  0  0  0  0  0  0  0  0  0  0  0
  135.1079  130.1006  137.1892 C   0  0  0  0  0  0  0  0  0  0  0  0
  134.1313  130.6287  136.3952 C   0  0  0  0  0  0  0  0  0  0  0  0
  132.8601  130.0751  136.3207 C   0  0  0  0  0  0  0  0  0  0  0  0
  131.6149  130.7474  135.3093 Cl  0  0  0  0  0  0  0  0  0  0  0  0
  132.5762  128.9629  137.0684 C   0  0  0  0  0  0  0  0  0  0  0  0
  132.7009  126.9219  139.9096 C   0  0  2  0  0  0  0  0  0  0  0  0
  132.9102  127.8046  141.0367 C   0  0  0  0  0  0  0  0  0  0  0  0
  134.2272  128.0513  141.4505 C   0  0  0  0  0  0  0  0  0  0  0  0
  134.5500  128.8588  142.5126 C   0  0  0  0  0  0  0  0  0  0  0  0
  133.5031  129.4492  143.1952 C   0  0  0  0  0  0  0  0  0  0  0  0
  132.2298  129.1846  142.7621 C   0  0  0  0  0  0  0  0  0  0  0  0
  131.9194  128.3932  141.7222 N   0  0  0  0  0  4  0  0  0  0  0  0
  130.5902  128.1683  141.3678 O   0  0  0  0  0  1  0  0  0  0  0  0
  136.1931  122.1771  138.2999 H   0  0  0  0  0  0  0  0  0  0  0  0
  138.2855  120.4110  140.0281 H   0  0  0  0  0  0  0  0  0  0  0  0
  139.2565  118.2448  139.5385 H   0  0  0  0  0  0  0  0  0  0  0  0
  135.0457  119.4968  137.3921 H   0  0  0  0  0  0  0  0  0  0  0  0
  135.6463  123.9006  141.3743 H   0  0  0  0  0  0  0  0  0  0  0  0
  136.1684  123.9407  139.6615 H   0  0  0  0  0  0  0  0  0  0  0  0
  135.4600  125.9879  139.4800 H   0  0  0  0  0  0  0  0  0  0  0  0
  135.0161  126.0485  141.1777 H   0  0  0  0  0  0  0  0  0  0  0  0
  131.4837  124.7135  139.8863 H   0  0  0  0  0  0  0  0  0  0  0  0
  132.4639  124.5025  141.3631 H   0  0  0  0  0  0  0  0  0  0  0  0
  132.3577  122.3862  140.2834 H   0  0  0  0  0  0  0  0  0  0  0  0
  132.8211  123.0955  138.6637 H   0  0  0  0  0  0  0  0  0  0  0  0
  135.5372  128.5053  138.5922 H   0  0  0  0  0  0  0  0  0  0  0  0
  136.1014  130.4942  137.2773 H   0  0  0  0  0  0  0  0  0  0  0  0
  134.3533  131.5012  135.8067 H   0  0  0  0  0  0  0  0  0  0  0  0
  131.5873  128.5183  137.0204 H   0  0  0  0  0  0  0  0  0  0  0  0
  131.5779  126.7360  139.7622 H   0  0  0  0  0  0  0  0  0  0  0  0
  135.0689  127.5883  140.9175 H   0  0  0  0  0  0  0  0  0  0  0  0
  135.5492  129.0560  142.8375 H   0  0  0  0  0  0  0  0  0  0  0  0
  133.6664  130.0939  144.0370 H   0  0  0  0  0  0  0  0  0  0  0  0
  131.3902  129.6392  143.2809 H   0  0  0  0  0  0  0  0  0  0  0  0
  1  2  2  0
  2  3  1  0
  3  4  1  0
  4  5  2  0
  5  6  1  0
  6  7  2  0
  7  8  1  0
  7  9  1  0
  9 10  1  0
  9 11  2  0
  2 12  1  0
 12 13  1  0
 13 14  1  0
 14 15  1  0
 15 16  1  0
 16 17  1  0
 15 18  1  0
 18 19  2  0
 18 20  1  0
 20 21  1  0
 21 22  2  0
 22 23  1  0
 23 24  2  0
 24 25  1  0
 25 26  1  0
 25 27  2  0
 20 28  1  0
 28 29  1  0
 29 30  2  0
 30 31  1  0
 31 32  2  0
 32 33  1  0
 33 34  2  0
 34 35  1  0
 11  4  1  0
 17 12  1  0
 27 21  1  0
 34 29  1  0
 28 15  1  0
  3 36  1  0
  5 37  1  0
  6 38  1  0
 11 39  1  0
 13 40  1  0
 13 41  1  0
 14 42  1  0
 14 43  1  0
 16 44  1  0
 16 45  1  0
 17 46  1  0
 17 47  1  0
 22 48  1  0
 23 49  1  0
 24 50  1  0
 27 51  1  0
 28 52  1  6
 30 53  1  0
 31 54  1  0
 32 55  1  0
 33 56  1  0
M  CHG  2  34   1  35  -1
M  END
>  <docking_score>  (1) 
-8.6880000000000006

$$$$

     RDKit          3D

 56 60  0  0  0  0  0  0  0  0999 V2000
  127.9002  123.7177  142.5516 O   0  0  0  0  0  0  0  0  0  0  0  0
  128.2821  124.8958  142.4272 C   0  0  0  0  0  0  0  0  0  0  0  0
  127.3621  125.9463  142.6181 N   0  0  0  0  0  0  0  0  0  0  0  0
  125.9887  125.8129  142.9610 C   0  0  0  0  0  0  0  0  0  0  0  0
  124.9509  126.0221  142.0889 C   0  0  0  0  0  0  0  0  0  0  0  0
  123.6508  125.8730  142.5354 C   0  0  0  0  0  0  0  0  0  0  0  0
  123.3583  125.5202  143.8284 C   0  0  0  0  0  0  0  0  0  0  0  0
  122.0819  125.3814  144.2394 F   0  0  0  0  0  0  0  0  0  0  0  0
  124.4064  125.3099  144.7043 C   0  0  0  0  0  0  0  0  0  0  0  0
  124.0814  124.9593  145.9843 F   0  0  0  0  0  0  0  0  0  0  0  0
  125.6846  125.4561  144.2685 C   0  0  0  0  0  0  0  0  0  0  0  0
  129.6615  125.1931  142.0892 N   0  0  0  0  0  0  0  0  0  0  0  0
  130.1946  124.5340  140.9681 C   0  0  0  0  0  0  0  0  0  0  0  0
  131.5162  124.9032  140.4222 C   0  0  0  0  0  0  0  0  0  0  0  0
  132.1835  125.9971  141.1556 C   0  0  0  0  0  0  0  0  0  0  0  0
  131.8726  125.9767  142.6448 C   0  0  0  0  0  0  0  0  0  0  0  0
  130.4021  126.1081  142.8958 C   0  0  0  0  0  0  0  0  0  0  0  0
  131.9645  127.3147  140.5129 C   0  0  0  0  0  0  0  0  0  0  0  0
  131.0668  128.1863  140.5308 O   0  0  0  0  0  0  0  0  0  0  0  0
  133.2127  127.1610  139.8684 N   0  0  0  0  0  0  0  0  0  0  0  0
  133.7267  127.7104  138.6545 C   0  0  0  0  0  0  0  0  0  0  0  0
  134.9858  128.2573  138.6117 C   0  0  0  0  0  0  0  0  0  0  0  0
  135.4535  128.7833  137.4192 C   0  0  0  0  0  0  0  0  0  0  0  0
  134.6425  128.7396  136.3222 C   0  0  0  0  0  0  0  0  0  0  0  0
  133.3697  128.1865  136.3660 C   0  0  0  0  0  0  0  0  0  0  0  0
  132.3355  128.1306  134.9686 Cl  0  0  0  0  0  0  0  0  0  0  0  0
  132.9124  127.6677  137.5486 C   0  0  0  0  0  0  0  0  0  0  0  0
  133.6096  126.3018  140.9290 C   0  0  2  0  0  0  0  0  0  0  0  0
  134.5897  125.2658  140.6854 C   0  0  0  0  0  0  0  0  0  0  0  0
  134.5655  124.6078  139.4472 C   0  0  0  0  0  0  0  0  0  0  0  0
  135.4346  123.6015  139.1059 C   0  0  0  0  0  0  0  0  0  0  0  0
  136.3748  123.2347  140.0502 C   0  0  0  0  0  0  0  0  0  0  0  0
  136.3677  123.8999  141.2487 C   0  0  0  0  0  0  0  0  0  0  0  0
  135.5147  124.8839  141.5778 N   0  0  0  0  0  4  0  0  0  0  0  0
  135.5728  125.4895  142.8320 O   0  0  0  0  0  1  0  0  0  0  0  0
  127.7317  126.9252  142.4948 H   0  0  0  0  0  0  0  0  0  0  0  0
  125.0901  126.2893  141.0730 H   0  0  0  0  0  0  0  0  0  0  0  0
  122.8108  126.0364  141.8579 H   0  0  0  0  0  0  0  0  0  0  0  0
  126.4937  125.2845  144.9846 H   0  0  0  0  0  0  0  0  0  0  0  0
  130.2106  123.4147  141.1737 H   0  0  0  0  0  0  0  0  0  0  0  0
  129.4196  124.6357  140.1291 H   0  0  0  0  0  0  0  0  0  0  0  0
  131.3567  125.2467  139.3542 H   0  0  0  0  0  0  0  0  0  0  0  0
  132.1852  124.0044  140.2780 H   0  0  0  0  0  0  0  0  0  0  0  0
  132.4237  126.8240  143.0923 H   0  0  0  0  0  0  0  0  0  0  0  0
  132.2591  125.0467  143.0791 H   0  0  0  0  0  0  0  0  0  0  0  0
  130.2508  125.9302  143.9966 H   0  0  0  0  0  0  0  0  0  0  0  0
  130.0582  127.1327  142.6334 H   0  0  0  0  0  0  0  0  0  0  0  0
  135.5714  128.2575  139.5185 H   0  0  0  0  0  0  0  0  0  0  0  0
  136.4415  129.1998  137.4310 H   0  0  0  0  0  0  0  0  0  0  0  0
  135.0009  129.1455  135.3928 H   0  0  0  0  0  0  0  0  0  0  0  0
  131.9200  127.2313  137.5985 H   0  0  0  0  0  0  0  0  0  0  0  0
  133.9644  126.9824  141.7825 H   0  0  0  0  0  0  0  0  0  0  0  0
  133.8234  124.8886  138.6875 H   0  0  0  0  0  0  0  0  0  0  0  0
  135.4277  123.0927  138.1657 H   0  0  0  0  0  0  0  0  0  0  0  0
  137.0912  122.4577  139.8658 H   0  0  0  0  0  0  0  0  0  0  0  0
  137.0990  123.6314  142.0063 H   0  0  0  0  0  0  0  0  0  0  0  0
  1  2  2  0
  2  3  1  0
  3  4  1  0
  4  5  2  0
  5  6  1  0
  6  7  2  0
  7  8  1  0
  7  9  1  0
  9 10  1  0
  9 11  2  0
  2 12  1  0
 12 13  1  0
 13 14  1  0
 14 15  1  0
 15 16  1  0
 16 17  1  0
 15 18  1  0
 18 19  2  0
 18 20  1  0
 20 21  1  0
 21 22  2  0
 22 23  1  0
 23 24  2  0
 24 25  1  0
 25 26  1  0
 25 27  2  0
 20 28  1  0
 28 29  1  0
 29 30  2  0
 30 31  1  0
 31 32  2  0
 32 33  1  0
 33 34  2  0
 34 35  1  0
 11  4  1  0
 17 12  1  0
 27 21  1  0
 34 29  1  0
 28 15  1  0
  3 36  1  0
  5 37  1  0
  6 38  1  0
 11 39  1  0
 13 40  1  0
 13 41  1  0
 14 42  1  0
 14 43  1  0
 16 44  1  0
 16 45  1  0
 17 46  1  0
 17 47  1  0
 22 48  1  0
 23 49  1  0
 24 50  1  0
 27 51  1  0
 28 52  1  1
 30 53  1  0
 31 54  1  0
 32 55  1  0
 33 56  1  0
M  CHG  2  34   1  35  -1
M  END
>  <docking_score>  (2) 
-8.4550000000000001

$$$$

     RDKit          3D

 56 60  0  0  0  0  0  0  0  0999 V2000
  141.9198  137.1329  139.4266 O   0  0  0  0  0  0  0  0  0  0  0  0
  142.6693  136.7166  140.3290 C   0  0  0  0  0  0  0  0  0  0  0  0
  142.1898  135.7526  141.2385 N   0  0  0  0  0  0  0  0  0  0  0  0
  140.8947  135.1659  141.2409 C   0  0  0  0  0  0  0  0  0  0  0  0
  139.8551  135.5918  142.0279 C   0  0  0  0  0  0  0  0  0  0  0  0
  138.6388  134.9383  141.9548 C   0  0  0  0  0  0  0  0  0  0  0  0
  138.4315  133.8718  141.1171 C   0  0  0  0  0  0  0  0  0  0  0  0
  137.2359  133.2514  141.0644 F   0  0  0  0  0  0  0  0  0  0  0  0
  139.4810  133.4457  140.3254 C   0  0  0  0  0  0  0  0  0  0  0  0
  139.2418  132.3818  139.5020 F   0  0  0  0  0  0  0  0  0  0  0  0
  140.6771  134.0854  140.3955 C   0  0  0  0  0  0  0  0  0  0  0  0
  144.0268  137.2145  140.4495 N   0  0  0  0  0  0  0  0  0  0  0  0
  144.9154  136.4490  141.2241 C   0  0  0  0  0  0  0  0  0  0  0  0
  146.3596  136.7561  141.2564 C   0  0  0  0  0  0  0  0  0  0  0  0
  146.7466  137.9076  140.4173 C   0  0  0  0  0  0  0  0  0  0  0  0
  145.6675  138.9787  140.3618 C   0  0  0  0  0  0  0  0  0  0  0  0
  144.3887  138.4346  139.8039 C   0  0  0  0  0  0  0  0  0  0  0  0
  147.2454  137.4859  139.0868 C   0  0  0  0  0  0  0  0  0  0  0  0
  146.7299  137.1784  137.9888 O   0  0  0  0  0  0  0  0  0  0  0  0
  148.5603  137.5816  139.5957 N   0  0  0  0  0  0  0  0  0  0  0  0
  149.7754  136.9383  139.2093 C   0  0  0  0  0  0  0  0  0  0  0  0
  150.7120  137.6050  138.4579 C   0  0  0  0  0  0  0  0  0  0  0  0
  151.8789  136.9518  138.0984 C   0  0  0  0  0  0  0  0  0  0  0  0
  152.0583  135.6613  138.5055 C   0  0  0  0  0  0  0  0  0  0  0  0
  151.1111  134.9879  139.2652 C   0  0  0  0  0  0  0  0  0  0  0  0
  151.3388  133.3435  139.7843 Cl  0  0  0  0  0  0  0  0  0  0  0  0
  149.9586  135.6393  139.6178 C   0  0  0  0  0  0  0  0  0  0  0  0
  148.0813  138.5242  140.5459 C   0  0  2  0  0  0  0  0  0  0  0  0
  148.7483  138.6589  141.8227 C   0  0  0  0  0  0  0  0  0  0  0  0
  148.8052  137.5376  142.6629 C   0  0  0  0  0  0  0  0  0  0  0  0
  149.3985  137.5466  143.9008 C   0  0  0  0  0  0  0  0  0  0  0  0
  149.9630  138.7367  144.3194 C   0  0  0  0  0  0  0  0  0  0  0  0
  149.8876  139.8111  143.4715 C   0  0  0  0  0  0  0  0  0  0  0  0
  149.3055  139.7970  142.2612 N   0  0  0  0  0  4  0  0  0  0  0  0
  149.2614  140.9483  141.4765 O   0  0  0  0  0  1  0  0  0  0  0  0
  142.8595  135.4373  141.9883 H   0  0  0  0  0  0  0  0  0  0  0  0
  139.9292  136.4113  142.6955 H   0  0  0  0  0  0  0  0  0  0  0  0
  137.7994  135.2605  142.5736 H   0  0  0  0  0  0  0  0  0  0  0  0
  141.4900  133.7250  139.7580 H   0  0  0  0  0  0  0  0  0  0  0  0
  144.5453  136.4345  142.3002 H   0  0  0  0  0  0  0  0  0  0  0  0
  144.7884  135.3601  140.8880 H   0  0  0  0  0  0  0  0  0  0  0  0
  146.9079  135.8432  140.8690 H   0  0  0  0  0  0  0  0  0  0  0  0
  146.7566  136.8332  142.3112 H   0  0  0  0  0  0  0  0  0  0  0  0
  146.0614  139.7884  139.7207 H   0  0  0  0  0  0  0  0  0  0  0  0
  145.5109  139.3825  141.3694 H   0  0  0  0  0  0  0  0  0  0  0  0
  143.6144  139.2395  139.9415 H   0  0  0  0  0  0  0  0  0  0  0  0
  144.5065  138.2126  138.7205 H   0  0  0  0  0  0  0  0  0  0  0  0
  150.5026  138.6245  138.1717 H   0  0  0  0  0  0  0  0  0  0  0  0
  152.5822  137.5096  137.5120 H   0  0  0  0  0  0  0  0  0  0  0  0
  152.9632  135.1492  138.2303 H   0  0  0  0  0  0  0  0  0  0  0  0
  149.2091  135.1265  140.2120 H   0  0  0  0  0  0  0  0  0  0  0  0
  148.0536  139.5392  140.0106 H   0  0  0  0  0  0  0  0  0  0  0  0
  148.3603  136.5854  142.3432 H   0  0  0  0  0  0  0  0  0  0  0  0
  149.4498  136.6990  144.5503 H   0  0  0  0  0  0  0  0  0  0  0  0
  150.4462  138.8313  145.2727 H   0  0  0  0  0  0  0  0  0  0  0  0
  150.3264  140.7571  143.7772 H   0  0  0  0  0  0  0  0  0  0  0  0
  1  2  2  0
  2  3  1  0
  3  4  1  0
  4  5  2  0
  5  6  1  0
  6  7  2  0
  7  8  1  0
  7  9  1  0
  9 10  1  0
  9 11  2  0
  2 12  1  0
 12 13  1  0
 13 14  1  0
 14 15  1  0
 15 16  1  0
 16 17  1  0
 15 18  1  0
 18 19  2  0
 18 20  1  0
 20 21  1  0
 21 22  2  0
 22 23  1  0
 23 24  2  0
 24 25  1  0
 25 26  1  0
 25 27  2  0
 20 28  1  0
 28 29  1  0
 29 30  2  0
 30 31  1  0
 31 32  2  0
 32 33  1  0
 33 34  2  0
 34 35  1  0
 11  4  1  0
 17 12  1  0
 27 21  1  0
 34 29  1  0
 28 15  1  0
  3 36  1  0
  5 37  1  0
  6 38  1  0
 11 39  1  0
 13 40  1  0
 13 41  1  0
 14 42  1  0
 14 43  1  0
 16 44  1  0
 16 45  1  0
 17 46  1  0
 17 47  1  0
 22 48  1  0
 23 49  1  0
 24 50  1  0
 27 51  1  0
 28 52  1  6
 30 53  1  0
 31 54  1  0
 32 55  1  0
 33 56  1  0
M  CHG  2  34   1  35  -1
M  END
>  <docking_score>  (3) 
-8.4120000000000008

$$$$
