
     RDKit          3D

 56 59  0  0  0  0  0  0  0  0999 V2000
  132.8796  126.5193  137.7051 C   0  0  0  0  0  0  0  0  0  0  0  0
  134.2450  126.0519  138.1634 C   0  0  0  0  0  0  0  0  0  0  0  0
  134.8576  127.0688  139.0661 C   0  0  0  0  0  0  0  0  0  0  0  0
  134.0805  124.7664  138.7812 N   0  0  0  0  0  0  0  0  0  0  0  0
  135.2545  123.9242  138.7900 C   0  0  0  0  0  0  0  0  0  0  0  0
  134.7497  123.3888  140.1378 C   0  0  0  0  0  0  0  0  0  0  0  0
  135.8653  123.1850  141.1407 C   0  0  0  0  0  0  0  0  0  0  0  0
  136.8181  122.1809  140.5222 C   0  0  0  0  0  0  0  0  0  0  0  0
  136.0577  121.0861  139.9572 N   0  0  0  0  0  0  0  0  0  0  0  0
  136.7940  120.1478  139.1308 C   0  0  0  0  0  0  0  0  0  0  0  0
  138.0440  120.1630  139.2040 O   0  0  0  0  0  0  0  0  0  0  0  0
  136.1525  119.2518  138.2776 N   0  0  0  0  0  0  0  0  0  0  0  0
  136.7490  118.2925  137.4345 C   0  0  0  0  0  0  0  0  0  0  0  0
  137.5659  117.3022  137.8987 C   0  0  0  0  0  0  0  0  0  0  0  0
  138.1574  116.3727  137.0302 C   0  0  0  0  0  0  0  0  0  0  0  0
  138.9618  115.4039  137.5178 F   0  0  0  0  0  0  0  0  0  0  0  0
  137.9147  116.4531  135.6839 C   0  0  0  0  0  0  0  0  0  0  0  0
  137.0945  117.4423  135.1932 C   0  0  0  0  0  0  0  0  0  0  0  0
  136.8336  117.5477  133.8579 F   0  0  0  0  0  0  0  0  0  0  0  0
  136.5202  118.3469  136.0458 C   0  0  0  0  0  0  0  0  0  0  0  0
  134.6525  120.8925  140.1782 C   0  0  0  0  0  0  0  0  0  0  0  0
  133.8891  122.1804  139.9916 C   0  0  0  0  0  0  0  0  0  0  0  0
  134.1045  124.7319  140.2227 C   0  0  2  0  0  0  0  0  0  0  0  0
  132.8050  124.7895  140.8882 C   0  0  0  0  0  0  0  0  0  0  0  0
  131.6556  124.2138  140.4427 C   0  0  0  0  0  0  0  0  0  0  0  0
  130.4635  124.3038  141.1383 C   0  0  0  0  0  0  0  0  0  0  0  0
  130.4193  125.0057  142.3404 C   0  0  0  0  0  0  0  0  0  0  0  0
  129.2749  125.1202  143.0561 F   0  0  0  0  0  0  0  0  0  0  0  0
  131.5682  125.6009  142.8184 C   0  0  0  0  0  0  0  0  0  0  0  0
  132.7161  125.4843  142.0983 C   0  0  0  0  0  0  0  0  0  0  0  0
  132.3812  125.6915  137.1195 H   0  0  0  0  0  0  0  0  0  0  0  0
  132.2043  126.7181  138.5662 H   0  0  0  0  0  0  0  0  0  0  0  0
  132.9300  127.3801  137.0135 H   0  0  0  0  0  0  0  0  0  0  0  0
  134.8644  125.9501  137.2474 H   0  0  0  0  0  0  0  0  0  0  0  0
  135.8992  127.3089  138.7569 H   0  0  0  0  0  0  0  0  0  0  0  0
  134.2963  128.0257  138.9829 H   0  0  0  0  0  0  0  0  0  0  0  0
  134.8971  126.7612  140.1211 H   0  0  0  0  0  0  0  0  0  0  0  0
  135.3010  123.1491  138.0054 H   0  0  0  0  0  0  0  0  0  0  0  0
  136.2105  124.4849  138.9556 H   0  0  0  0  0  0  0  0  0  0  0  0
  135.4653  122.7690  142.0634 H   0  0  0  0  0  0  0  0  0  0  0  0
  136.3639  124.1330  141.3235 H   0  0  0  0  0  0  0  0  0  0  0  0
  137.4419  122.6915  139.7568 H   0  0  0  0  0  0  0  0  0  0  0  0
  137.5063  121.7807  141.2925 H   0  0  0  0  0  0  0  0  0  0  0  0
  135.0887  119.3008  138.2650 H   0  0  0  0  0  0  0  0  0  0  0  0
  137.7939  117.1728  138.9588 H   0  0  0  0  0  0  0  0  0  0  0  0
  138.3568  115.7497  134.9841 H   0  0  0  0  0  0  0  0  0  0  0  0
  135.8682  119.1438  135.7093 H   0  0  0  0  0  0  0  0  0  0  0  0
  134.2551  120.1509  139.4487 H   0  0  0  0  0  0  0  0  0  0  0  0
  134.4492  120.4721  141.2087 H   0  0  0  0  0  0  0  0  0  0  0  0
  133.4599  122.1815  138.9714 H   0  0  0  0  0  0  0  0  0  0  0  0
  133.0847  122.2042  140.7760 H   0  0  0  0  0  0  0  0  0  0  0  0
  134.8570  125.4469  140.6726 H   0  0  0  0  0  0  0  0  0  0  0  0
  131.6410  123.6756  139.5248 H   0  0  0  0  0  0  0  0  0  0  0  0
  129.5583  123.8465  140.7811 H   0  0  0  0  0  0  0  0  0  0  0  0
  131.5723  126.1556  143.7505 H   0  0  0  0  0  0  0  0  0  0  0  0
  133.6083  125.9581  142.4888 H   0  0  0  0  0  0  0  0  0  0  0  0
  1  2  1  0
  2  3  1  0
  2  4  1  0
  4  5  1  0
  5  6  1  0
  6  7  1  0
  7  8  1  0
  8  9  1  0
  9 10  1  0
 10 11  2  0
 10 12  1  0
 12 13  1  0
 13 14  2  0
 14 15  1  0
 15 16  1  0
 15 17  2  0
 17 18  1  0
 18 19  1  0
 18 20  2  0
  9 21  1  0
 21 22  1  0
  6 23  1  0
 23 24  1  0
 24 25  2  0
 25 26  1  0
 26 27  2  0
 27 28  1  0
 27 29  1  0
 29 30  2  0
 23  4  1  0
 30 24  1  0
 22  6  1  0
 20 13  1  0
  1 31  1  0
  1 32  1  0
  1 33  1  0
  2 34  1  0
  3 35  1  0
  3 36  1  0
  3 37  1  0
  5 38  1  0
  5 39  1  0
  7 40  1  0
  7 41  1  0
  8 42  1  0
  8 43  1  0
 12 44  1  0
 14 45  1  0
 17 46  1  0
 20 47  1  0
 21 48  1  0
 21 49  1  0
 22 50  1  0
 22 51  1  0
 23 52  1  1
 25 53  1  0
 26 54  1  0
 29 55  1  0
 30 56  1  0
M  END
>  <docking_score>  (1) 
-8.6310000000000002

$$$$

     RDKit          3D

 56 59  0  0  0  0  0  0  0  0999 V2000
  142.1805  132.6371  143.0783 C   0  0  0  0  0  0  0  0  0  0  0  0
  141.6724  131.8532  141.8865 C   0  0  0  0  0  0  0  0  0  0  0  0
  140.5074  131.0122  142.2862 C   0  0  0  0  0  0  0  0  0  0  0  0
  141.3667  132.7931  140.8453 N   0  0  0  0  0  0  0  0  0  0  0  0
  141.6305  132.3397  139.4990 C   0  0  0  0  0  0  0  0  0  0  0  0
  140.4184  133.1816  139.0744 C   0  0  0  0  0  0  0  0  0  0  0  0
  139.5638  132.4918  138.0324 C   0  0  0  0  0  0  0  0  0  0  0  0
  140.4602  132.2547  136.8329 C   0  0  0  0  0  0  0  0  0  0  0  0
  141.2191  133.4567  136.5587 N   0  0  0  0  0  0  0  0  0  0  0  0
  142.2882  133.3368  135.5849 C   0  0  0  0  0  0  0  0  0  0  0  0
  142.0007  133.5139  134.3791 O   0  0  0  0  0  0  0  0  0  0  0  0
  143.5972  133.0354  135.9566 N   0  0  0  0  0  0  0  0  0  0  0  0
  144.7188  132.8988  135.1140 C   0  0  0  0  0  0  0  0  0  0  0  0
  145.3555  133.9652  134.5474 C   0  0  0  0  0  0  0  0  0  0  0  0
  146.4599  133.7936  133.6994 C   0  0  0  0  0  0  0  0  0  0  0  0
  147.0695  134.8672  133.1526 F   0  0  0  0  0  0  0  0  0  0  0  0
  146.9168  132.5304  133.4288 C   0  0  0  0  0  0  0  0  0  0  0  0
  146.2915  131.4407  133.9888 C   0  0  0  0  0  0  0  0  0  0  0  0
  146.7236  130.1707  133.7385 F   0  0  0  0  0  0  0  0  0  0  0  0
  145.2138  131.6145  134.8154 C   0  0  0  0  0  0  0  0  0  0  0  0
  140.9628  134.7228  137.1849 C   0  0  0  0  0  0  0  0  0  0  0  0
  140.7918  134.5686  138.6759 C   0  0  0  0  0  0  0  0  0  0  0  0
  139.9785  132.9243  140.4772 C   0  0  2  0  0  0  0  0  0  0  0  0
  139.2384  133.9985  141.1352 C   0  0  0  0  0  0  0  0  0  0  0  0
  139.7857  135.0643  141.7800 C   0  0  0  0  0  0  0  0  0  0  0  0
  139.0149  136.0495  142.3700 C   0  0  0  0  0  0  0  0  0  0  0  0
  137.6260  135.9638  142.3121 C   0  0  0  0  0  0  0  0  0  0  0  0
  136.8308  136.9049  142.8752 F   0  0  0  0  0  0  0  0  0  0  0  0
  137.0410  134.8950  141.6657 C   0  0  0  0  0  0  0  0  0  0  0  0
  137.8414  133.9515  141.1009 C   0  0  0  0  0  0  0  0  0  0  0  0
  142.6760  133.5852  142.7150 H   0  0  0  0  0  0  0  0  0  0  0  0
  141.3466  132.9734  143.7330 H   0  0  0  0  0  0  0  0  0  0  0  0
  142.9592  132.0971  143.6473 H   0  0  0  0  0  0  0  0  0  0  0  0
  142.5084  131.1970  141.5645 H   0  0  0  0  0  0  0  0  0  0  0  0
  140.5128  130.8072  143.3798 H   0  0  0  0  0  0  0  0  0  0  0  0
  139.5638  131.5693  142.0943 H   0  0  0  0  0  0  0  0  0  0  0  0
  140.4651  130.0390  141.7758 H   0  0  0  0  0  0  0  0  0  0  0  0
  142.5773  132.6843  139.0482 H   0  0  0  0  0  0  0  0  0  0  0  0
  141.3972  131.2561  139.3343 H   0  0  0  0  0  0  0  0  0  0  0  0
  138.7423  133.1410  137.7354 H   0  0  0  0  0  0  0  0  0  0  0  0
  139.1938  131.5522  138.4334 H   0  0  0  0  0  0  0  0  0  0  0  0
  141.1209  131.3840  137.0361 H   0  0  0  0  0  0  0  0  0  0  0  0
  139.8508  132.0034  135.9427 H   0  0  0  0  0  0  0  0  0  0  0  0
  143.7645  132.8933  136.9987 H   0  0  0  0  0  0  0  0  0  0  0  0
  145.0518  134.9986  134.7278 H   0  0  0  0  0  0  0  0  0  0  0  0
  147.7691  132.3624  132.7766 H   0  0  0  0  0  0  0  0  0  0  0  0
  144.6871  130.7898  135.2800 H   0  0  0  0  0  0  0  0  0  0  0  0
  141.8206  135.4108  137.0085 H   0  0  0  0  0  0  0  0  0  0  0  0
  140.0501  135.2257  136.7442 H   0  0  0  0  0  0  0  0  0  0  0  0
  141.7540  134.8218  139.1608 H   0  0  0  0  0  0  0  0  0  0  0  0
  139.9753  135.2742  138.9895 H   0  0  0  0  0  0  0  0  0  0  0  0
  139.4204  131.9402  140.4874 H   0  0  0  0  0  0  0  0  0  0  0  0
  140.8423  135.1656  141.8564 H   0  0  0  0  0  0  0  0  0  0  0  0
  139.4533  136.8896  142.8781 H   0  0  0  0  0  0  0  0  0  0  0  0
  135.9629  134.7944  141.6003 H   0  0  0  0  0  0  0  0  0  0  0  0
  137.3647  133.1194  140.5976 H   0  0  0  0  0  0  0  0  0  0  0  0
  1  2  1  0
  2  3  1  0
  2  4  1  0
  4  5  1  0
  5  6  1  0
  6  7  1  0
  7  8  1  0
  8  9  1  0
  9 10  1  0
 10 11  2  0
 10 12  1  0
 12 13  1  0
 13 14  2  0
 14 15  1  0
 15 16  1  0
 15 17  2  0
 17 18  1  0
 18 19  1  0
 18 20  2  0
  9 21  1  0
 21 22  1  0
  6 23  1  0
 23 24  1  0
 24 25  2  0
 25 26  1  0
 26 27  2  0
 27 28  1  0
 27 29  1  0
 29 30  2  0
 23  4  1  0
 30 24  1  0
 22  6  1  0
 20 13  1  0
  1 31  1  0
  1 32  1  0
  1 33  1  0
  2 34  1  0
  3 35  1  0
  3 36  1  0
  3 37  1  0
  5 38  1  0
  5 39  1  0
  7 40  1  0
  7 41  1  0
  8 42  1  0
  8 43  1  0
 12 44  1  0
 14 45  1  0
 17 46  1  0
 20 47  1  0
 21 48  1  0
 21 49  1  0
 22 50  1  0
 22 51  1  0
 23 52  1  6
 25 53  1  0
 26 54  1  0
 29 55  1  0
 30 56  1  0
M  END
>  <docking_score>  (2) 
-8.3149999999999995

$$$$

     RDKit          3D

 56 59  0  0  0  0  0  0  0  0999 V2000
  140.7445  115.1644  133.6374 C   0  0  0  0  0  0  0  0  0  0  0  0
  139.7687  114.1004  133.1805 C   0  0  0  0  0  0  0  0  0  0  0  0
  140.0576  112.8107  133.8714 C   0  0  0  0  0  0  0  0  0  0  0  0
  138.4423  114.5928  133.4235 N   0  0  0  0  0  0  0  0  0  0  0  0
  138.3596  115.7919  134.2253 C   0  0  0  0  0  0  0  0  0  0  0  0
  137.1340  116.1653  133.3788 C   0  0  0  0  0  0  0  0  0  0  0  0
  137.0907  117.6380  133.0305 C   0  0  0  0  0  0  0  0  0  0  0  0
  137.0434  118.3876  134.3475 C   0  0  0  0  0  0  0  0  0  0  0  0
  136.0772  117.7567  135.2218 N   0  0  0  0  0  0  0  0  0  0  0  0
  136.0641  118.2073  136.6010 C   0  0  0  0  0  0  0  0  0  0  0  0
  135.2430  117.6729  137.3810 O   0  0  0  0  0  0  0  0  0  0  0  0
  136.9268  119.1995  137.0634 N   0  0  0  0  0  0  0  0  0  0  0  0
  137.0172  119.7169  138.3714 C   0  0  0  0  0  0  0  0  0  0  0  0
  136.2180  120.7253  138.8275 C   0  0  0  0  0  0  0  0  0  0  0  0
  136.3451  121.2289  140.1307 C   0  0  0  0  0  0  0  0  0  0  0  0
  135.5409  122.2274  140.5543 F   0  0  0  0  0  0  0  0  0  0  0  0
  137.2901  120.7022  140.9717 C   0  0  0  0  0  0  0  0  0  0  0  0
  138.1065  119.6852  140.5343 C   0  0  0  0  0  0  0  0  0  0  0  0
  139.0563  119.1402  141.3486 F   0  0  0  0  0  0  0  0  0  0  0  0
  137.9779  119.1979  139.2611 C   0  0  0  0  0  0  0  0  0  0  0  0
  135.1571  116.7412  134.7939 C   0  0  0  0  0  0  0  0  0  0  0  0
  135.8548  115.6842  133.9741 C   0  0  0  0  0  0  0  0  0  0  0  0
  137.8159  115.3254  132.3507 C   0  0  2  0  0  0  0  0  0  0  0  0
  136.9507  114.5510  131.4639 C   0  0  0  0  0  0  0  0  0  0  0  0
  136.1621  115.0579  130.4778 C   0  0  0  0  0  0  0  0  0  0  0  0
  135.3774  114.2552  129.6698 C   0  0  0  0  0  0  0  0  0  0  0  0
  135.3818  112.8753  129.8582 C   0  0  0  0  0  0  0  0  0  0  0  0
  134.6299  112.0499  129.0912 F   0  0  0  0  0  0  0  0  0  0  0  0
  136.1707  112.3309  130.8501 C   0  0  0  0  0  0  0  0  0  0  0  0
  136.9249  113.1616  131.6188 C   0  0  0  0  0  0  0  0  0  0  0  0
  140.7905  115.9838  132.8608 H   0  0  0  0  0  0  0  0  0  0  0  0
  140.4002  115.6624  134.5704 H   0  0  0  0  0  0  0  0  0  0  0  0
  141.7794  114.7872  133.7292 H   0  0  0  0  0  0  0  0  0  0  0  0
  139.9282  113.9781  132.0884 H   0  0  0  0  0  0  0  0  0  0  0  0
  139.6414  112.8026  134.9034 H   0  0  0  0  0  0  0  0  0  0  0  0
  139.5435  111.9804  133.3386 H   0  0  0  0  0  0  0  0  0  0  0  0
  141.1298  112.5806  133.9543 H   0  0  0  0  0  0  0  0  0  0  0  0
  138.1210  115.6456  135.2931 H   0  0  0  0  0  0  0  0  0  0  0  0
  139.1803  116.5276  134.0225 H   0  0  0  0  0  0  0  0  0  0  0  0
  136.1875  117.8607  132.4657 H   0  0  0  0  0  0  0  0  0  0  0  0
  137.9802  117.9013  132.4647 H   0  0  0  0  0  0  0  0  0  0  0  0
  138.0604  118.4042  134.7961 H   0  0  0  0  0  0  0  0  0  0  0  0
  136.7420  119.4401  134.1788 H   0  0  0  0  0  0  0  0  0  0  0  0
  137.5931  119.6108  136.3416 H   0  0  0  0  0  0  0  0  0  0  0  0
  135.4382  121.1836  138.2156 H   0  0  0  0  0  0  0  0  0  0  0  0
  137.4150  121.0691  141.9865 H   0  0  0  0  0  0  0  0  0  0  0  0
  138.5962  118.3995  138.8693 H   0  0  0  0  0  0  0  0  0  0  0  0
  134.7065  116.2427  135.6821 H   0  0  0  0  0  0  0  0  0  0  0  0
  134.2997  117.1819  134.2018 H   0  0  0  0  0  0  0  0  0  0  0  0
  136.0813  114.8276  134.6375 H   0  0  0  0  0  0  0  0  0  0  0  0
  135.1521  115.3897  133.1480 H   0  0  0  0  0  0  0  0  0  0  0  0
  138.5360  115.9905  131.7860 H   0  0  0  0  0  0  0  0  0  0  0  0
  136.1209  116.1070  130.3043 H   0  0  0  0  0  0  0  0  0  0  0  0
  134.7563  114.6618  128.8920 H   0  0  0  0  0  0  0  0  0  0  0  0
  136.2000  111.2610  131.0264 H   0  0  0  0  0  0  0  0  0  0  0  0
  137.5381  112.7166  132.3927 H   0  0  0  0  0  0  0  0  0  0  0  0
  1  2  1  0
  2  3  1  0
  2  4  1  0
  4  5  1  0
  5  6  1  0
  6  7  1  0
  7  8  1  0
  8  9  1  0
  9 10  1  0
 10 11  2  0
 10 12  1  0
 12 13  1  0
 13 14  2  0
 14 15  1  0
 15 16  1  0
 15 17  2  0
 17 18  1  0
 18 19  1  0
 18 20  2  0
  9 21  1  0
 21 22  1  0
  6 23  1  0
 23 24  1  0
 24 25  2  0
 25 26  1  0
 26 27  2  0
 27 28  1  0
 27 29  1  0
 29 30  2  0
 23  4  1  0
 30 24  1  0
 22  6  1  0
 20 13  1  0
  1 31  1  0
  1 32  1  0
  1 33  1  0
  2 34  1  0
  3 35  1  0
  3 36  1  0
  3 37  1  0
  5 38  1  0
  5 39  1  0
  7 40  1  0
  7 41  1  0
  8 42  1  0
  8 43  1  0
 12 44  1  0
 14 45  1  0
 17 46  1  0
 20 47  1  0
 21 48  1  0
 21 49  1  0
 22 50  1  0
 22 51  1  0
 23 52  1  6
 25 53  1  0
 26 54  1  0
 29 55  1  0
 30 56  1  0
M  END
>  <docking_score>  (3) 
-7.9569999999999999

$$$$
