
     RDKit          3D

 56 59  0  0  0  0  0  0  0  0999 V2000
  132.3676  133.2783  137.9716 C   0  0  0  0  0  0  0  0  0  0  0  0
  131.9852  132.2310  136.9859 C   0  0  0  0  0  0  0  0  0  0  0  0
  132.0565  132.8454  135.5991 C   0  0  0  0  0  0  0  0  0  0  0  0
  132.7917  131.0593  136.9868 N   0  0  0  0  0  0  0  0  0  0  0  0
  132.2585  129.9372  137.7654 C   0  0  0  0  0  0  0  0  0  0  0  0
  133.7244  129.5391  138.0063 C   0  0  0  0  0  0  0  0  0  0  0  0
  134.1752  128.6330  136.9236 C   0  0  0  0  0  0  0  0  0  0  0  0
  133.8058  127.2108  137.3753 C   0  0  0  0  0  0  0  0  0  0  0  0
  134.5841  126.8314  138.5145 N   0  0  0  0  0  0  0  0  0  0  0  0
  134.9657  125.4678  138.7025 C   0  0  0  0  0  0  0  0  0  0  0  0
  135.3926  124.8750  137.6950 O   0  0  0  0  0  0  0  0  0  0  0  0
  134.8719  124.8193  139.9404 N   0  0  0  0  0  0  0  0  0  0  0  0
  135.2248  123.4919  140.1803 C   0  0  0  0  0  0  0  0  0  0  0  0
  134.1828  122.5514  140.1310 C   0  0  0  0  0  0  0  0  0  0  0  0
  134.4113  121.2207  140.3404 C   0  0  0  0  0  0  0  0  0  0  0  0
  133.3789  120.3195  140.2882 F   0  0  0  0  0  0  0  0  0  0  0  0
  135.6885  120.7616  140.6089 C   0  0  0  0  0  0  0  0  0  0  0  0
  136.7305  121.6465  140.6652 C   0  0  0  0  0  0  0  0  0  0  0  0
  137.9722  121.2223  140.9237 F   0  0  0  0  0  0  0  0  0  0  0  0
  136.4811  123.0047  140.4488 C   0  0  0  0  0  0  0  0  0  0  0  0
  134.9579  127.8702  139.4456 C   0  0  0  0  0  0  0  0  0  0  0  0
  133.9693  129.0152  139.3998 C   0  0  0  0  0  0  0  0  0  0  0  0
  133.9366  131.0212  137.8441 C   0  0  1  0  0  0  0  0  0  0  0  0
  135.2191  131.4703  137.2791 C   0  0  0  0  0  0  0  0  0  0  0  0
  136.3640  131.4462  138.0514 C   0  0  0  0  0  0  0  0  0  0  0  0
  137.5932  131.8542  137.6059 C   0  0  0  0  0  0  0  0  0  0  0  0
  137.6794  132.3142  136.3082 C   0  0  0  0  0  0  0  0  0  0  0  0
  139.2756  132.8319  135.7678 Cl  0  0  0  0  0  0  0  0  0  0  0  0
  136.5738  132.3569  135.5060 C   0  0  0  0  0  0  0  0  0  0  0  0
  135.3448  131.9353  135.9912 C   0  0  0  0  0  0  0  0  0  0  0  0
  133.2864  133.8303  137.6451 H   0  0  0  0  0  0  0  0  0  0  0  0
  132.4361  132.9540  139.0041 H   0  0  0  0  0  0  0  0  0  0  0  0
  131.5567  134.0648  137.9427 H   0  0  0  0  0  0  0  0  0  0  0  0
  130.9069  131.9319  137.1432 H   0  0  0  0  0  0  0  0  0  0  0  0
  131.6586  133.8883  135.7018 H   0  0  0  0  0  0  0  0  0  0  0  0
  133.0677  132.8783  135.1954 H   0  0  0  0  0  0  0  0  0  0  0  0
  131.3276  132.3116  134.9356 H   0  0  0  0  0  0  0  0  0  0  0  0
  131.7066  129.1938  137.1509 H   0  0  0  0  0  0  0  0  0  0  0  0
  131.7762  130.2238  138.7215 H   0  0  0  0  0  0  0  0  0  0  0  0
  135.2634  128.6804  136.7117 H   0  0  0  0  0  0  0  0  0  0  0  0
  133.5719  128.7965  136.0096 H   0  0  0  0  0  0  0  0  0  0  0  0
  134.0265  126.4971  136.5426 H   0  0  0  0  0  0  0  0  0  0  0  0
  132.7162  127.1762  137.5287 H   0  0  0  0  0  0  0  0  0  0  0  0
  134.4973  125.4128  140.7356 H   0  0  0  0  0  0  0  0  0  0  0  0
  133.1729  122.8866  139.9232 H   0  0  0  0  0  0  0  0  0  0  0  0
  135.8744  119.7138  140.7747 H   0  0  0  0  0  0  0  0  0  0  0  0
  137.3156  123.6709  140.4924 H   0  0  0  0  0  0  0  0  0  0  0  0
  134.9704  127.5304  140.5049 H   0  0  0  0  0  0  0  0  0  0  0  0
  135.9853  128.2079  139.2101 H   0  0  0  0  0  0  0  0  0  0  0  0
  134.3876  129.8295  140.0274 H   0  0  0  0  0  0  0  0  0  0  0  0
  133.0166  128.7029  139.8627 H   0  0  0  0  0  0  0  0  0  0  0  0
  133.7529  131.4703  138.8746 H   0  0  0  0  0  0  0  0  0  0  0  0
  136.3055  131.0841  139.0784 H   0  0  0  0  0  0  0  0  0  0  0  0
  138.4801  131.8171  138.2561 H   0  0  0  0  0  0  0  0  0  0  0  0
  136.6702  132.7219  134.4928 H   0  0  0  0  0  0  0  0  0  0  0  0
  134.4858  131.9942  135.3121 H   0  0  0  0  0  0  0  0  0  0  0  0
  1  2  1  0
  2  3  1  0
  2  4  1  0
  4  5  1  0
  5  6  1  0
  6  7  1  0
  7  8  1  0
  8  9  1  0
  9 10  1  0
 10 11  2  0
 10 12  1  0
 12 13  1  0
 13 14  2  0
 14 15  1  0
 15 16  1  0
 15 17  2  0
 17 18  1  0
 18 19  1  0
 18 20  2  0
  9 21  1  0
 21 22  1  0
  6 23  1  0
 23 24  1  0
 24 25  2  0
 25 26  1  0
 26 27  2  0
 27 28  1  0
 27 29  1  0
 29 30  2  0
 23  4  1  0
 30 24  1  0
 22  6  1  0
 20 13  1  0
  1 31  1  0
  1 32  1  0
  1 33  1  0
  2 34  1  0
  3 35  1  0
  3 36  1  0
  3 37  1  0
  5 38  1  0
  5 39  1  0
  7 40  1  0
  7 41  1  0
  8 42  1  0
  8 43  1  0
 12 44  1  0
 14 45  1  0
 17 46  1  0
 20 47  1  0
 21 48  1  0
 21 49  1  0
 22 50  1  0
 22 51  1  0
 23 52  1  1
 25 53  1  0
 26 54  1  0
 29 55  1  0
 30 56  1  0
M  END
>  <docking_score>  (1) 
-7.7489999999999997

$$$$

     RDKit          3D

 56 59  0  0  0  0  0  0  0  0999 V2000
  140.2042  113.2823  129.7807 C   0  0  0  0  0  0  0  0  0  0  0  0
  138.7300  113.1284  129.9145 C   0  0  0  0  0  0  0  0  0  0  0  0
  138.4545  111.7556  130.5022 C   0  0  0  0  0  0  0  0  0  0  0  0
  138.0811  114.0930  130.7341 N   0  0  0  0  0  0  0  0  0  0  0  0
  138.7835  114.4273  131.9769 C   0  0  0  0  0  0  0  0  0  0  0  0
  137.3912  114.6929  132.5738 C   0  0  0  0  0  0  0  0  0  0  0  0
  137.0189  116.1098  132.3493 C   0  0  0  0  0  0  0  0  0  0  0  0
  137.5849  116.8945  133.5440 C   0  0  0  0  0  0  0  0  0  0  0  0
  136.9062  116.5268  134.7488 N   0  0  0  0  0  0  0  0  0  0  0  0
  136.7102  117.4894  135.7858 C   0  0  0  0  0  0  0  0  0  0  0  0
  136.5214  118.6622  135.4154 O   0  0  0  0  0  0  0  0  0  0  0  0
  136.7263  117.1516  137.1450 N   0  0  0  0  0  0  0  0  0  0  0  0
  136.5459  118.0482  138.1975 C   0  0  0  0  0  0  0  0  0  0  0  0
  137.6921  118.3770  138.9395 C   0  0  0  0  0  0  0  0  0  0  0  0
  137.6379  119.2523  139.9873 C   0  0  0  0  0  0  0  0  0  0  0  0
  138.7694  119.5588  140.6988 F   0  0  0  0  0  0  0  0  0  0  0  0
  136.4396  119.8430  140.3470 C   0  0  0  0  0  0  0  0  0  0  0  0
  135.3005  119.5485  139.6486 C   0  0  0  0  0  0  0  0  0  0  0  0
  134.1326  120.1090  139.9812 F   0  0  0  0  0  0  0  0  0  0  0  0
  135.3719  118.6513  138.5792 C   0  0  0  0  0  0  0  0  0  0  0  0
  136.4385  115.1653  134.8645 C   0  0  0  0  0  0  0  0  0  0  0  0
  137.2695  114.2360  134.0065 C   0  0  0  0  0  0  0  0  0  0  0  0
  136.9846  113.6673  131.5488 C   0  0  1  0  0  0  0  0  0  0  0  0
  135.6342  113.7739  130.9736 C   0  0  0  0  0  0  0  0  0  0  0  0
  135.4082  114.5853  129.8789 C   0  0  0  0  0  0  0  0  0  0  0  0
  134.1825  114.7471  129.2896 C   0  0  0  0  0  0  0  0  0  0  0  0
  133.1196  114.0539  129.8306 C   0  0  0  0  0  0  0  0  0  0  0  0
  131.5569  114.2858  129.0483 Cl  0  0  0  0  0  0  0  0  0  0  0  0
  133.2942  113.2392  130.9139 C   0  0  0  0  0  0  0  0  0  0  0  0
  134.5504  113.0994  131.4848 C   0  0  0  0  0  0  0  0  0  0  0  0
  140.4767  113.7808  128.8148 H   0  0  0  0  0  0  0  0  0  0  0  0
  140.7912  112.3871  129.9534 H   0  0  0  0  0  0  0  0  0  0  0  0
  140.5271  114.0262  130.5678 H   0  0  0  0  0  0  0  0  0  0  0  0
  138.2495  113.1358  128.8919 H   0  0  0  0  0  0  0  0  0  0  0  0
  137.3909  111.5154  130.2424 H   0  0  0  0  0  0  0  0  0  0  0  0
  139.1107  110.9803  130.1086 H   0  0  0  0  0  0  0  0  0  0  0  0
  138.4781  111.8360  131.6201 H   0  0  0  0  0  0  0  0  0  0  0  0
  139.4021  115.3475  131.9027 H   0  0  0  0  0  0  0  0  0  0  0  0
  139.2616  113.5662  132.4856 H   0  0  0  0  0  0  0  0  0  0  0  0
  135.9262  116.2889  132.2763 H   0  0  0  0  0  0  0  0  0  0  0  0
  137.5605  116.5152  131.4728 H   0  0  0  0  0  0  0  0  0  0  0  0
  137.4255  117.9877  133.3678 H   0  0  0  0  0  0  0  0  0  0  0  0
  138.6750  116.7423  133.5636 H   0  0  0  0  0  0  0  0  0  0  0  0
  136.8935  116.1255  137.3550 H   0  0  0  0  0  0  0  0  0  0  0  0
  138.6429  117.9264  138.6776 H   0  0  0  0  0  0  0  0  0  0  0  0
  136.3910  120.5337  141.1720 H   0  0  0  0  0  0  0  0  0  0  0  0
  134.4673  118.4461  138.0485 H   0  0  0  0  0  0  0  0  0  0  0  0
  136.5106  114.7597  135.8980 H   0  0  0  0  0  0  0  0  0  0  0  0
  135.3680  115.1307  134.5856 H   0  0  0  0  0  0  0  0  0  0  0  0
  136.7748  113.2427  134.0319 H   0  0  0  0  0  0  0  0  0  0  0  0
  138.2716  114.1131  134.4540 H   0  0  0  0  0  0  0  0  0  0  0  0
  137.1488  112.6562  132.0470 H   0  0  0  0  0  0  0  0  0  0  0  0
  136.2425  115.1370  129.4443 H   0  0  0  0  0  0  0  0  0  0  0  0
  134.0480  115.4042  128.4172 H   0  0  0  0  0  0  0  0  0  0  0  0
  132.4435  112.7075  131.3174 H   0  0  0  0  0  0  0  0  0  0  0  0
  134.6393  112.4394  132.3560 H   0  0  0  0  0  0  0  0  0  0  0  0
  1  2  1  0
  2  3  1  0
  2  4  1  0
  4  5  1  0
  5  6  1  0
  6  7  1  0
  7  8  1  0
  8  9  1  0
  9 10  1  0
 10 11  2  0
 10 12  1  0
 12 13  1  0
 13 14  2  0
 14 15  1  0
 15 16  1  0
 15 17  2  0
 17 18  1  0
 18 19  1  0
 18 20  2  0
  9 21  1  0
 21 22  1  0
  6 23  1  0
 23 24  1  0
 24 25  2  0
 25 26  1  0
 26 27  2  0
 27 28  1  0
 27 29  1  0
 29 30  2  0
 23  4  1  0
 30 24  1  0
 22  6  1  0
 20 13  1  0
  1 31  1  0
  1 32  1  0
  1 33  1  0
  2 34  1  0
  3 35  1  0
  3 36  1  0
  3 37  1  0
  5 38  1  0
  5 39  1  0
  7 40  1  0
  7 41  1  0
  8 42  1  0
  8 43  1  0
 12 44  1  0
 14 45  1  0
 17 46  1  0
 20 47  1  0
 21 48  1  0
 21 49  1  0
 22 50  1  0
 22 51  1  0
 23 52  1  1
 25 53  1  0
 26 54  1  0
 29 55  1  0
 30 56  1  0
M  END
>  <docking_score>  (2) 
-7.7469999999999999

$$$$

     RDKit          3D

 56 59  0  0  0  0  0  0  0  0999 V2000
  139.4762  113.5182  137.8861 C   0  0  0  0  0  0  0  0  0  0  0  0
  139.2927  114.3592  136.6720 C   0  0  0  0  0  0  0  0  0  0  0  0
  138.2043  113.7251  135.8239 C   0  0  0  0  0  0  0  0  0  0  0  0
  138.9286  115.7136  136.9092 N   0  0  0  0  0  0  0  0  0  0  0  0
  138.3057  115.9718  138.2111 C   0  0  0  0  0  0  0  0  0  0  0  0
  137.5432  117.1074  137.5080 C   0  0  0  0  0  0  0  0  0  0  0  0
  138.3348  118.3579  137.5874 C   0  0  0  0  0  0  0  0  0  0  0  0
  137.9395  119.0302  138.9122 C   0  0  0  0  0  0  0  0  0  0  0  0
  136.5770  119.4648  138.8638 N   0  0  0  0  0  0  0  0  0  0  0  0
  136.1718  120.6395  139.5683 C   0  0  0  0  0  0  0  0  0  0  0  0
  136.3560  120.6305  140.7990 O   0  0  0  0  0  0  0  0  0  0  0  0
  135.5990  121.7460  138.9286 N   0  0  0  0  0  0  0  0  0  0  0  0
  135.1814  122.9142  139.5649 C   0  0  0  0  0  0  0  0  0  0  0  0
  133.8269  122.9742  139.9314 C   0  0  0  0  0  0  0  0  0  0  0  0
  133.3072  124.0651  140.5691 C   0  0  0  0  0  0  0  0  0  0  0  0
  131.9813  124.1029  140.9174 F   0  0  0  0  0  0  0  0  0  0  0  0
  134.1110  125.1495  140.8730 C   0  0  0  0  0  0  0  0  0  0  0  0
  135.4360  125.1293  140.5326 C   0  0  0  0  0  0  0  0  0  0  0  0
  136.2291  126.1678  140.8175 F   0  0  0  0  0  0  0  0  0  0  0  0
  135.9531  124.0063  139.8807 C   0  0  0  0  0  0  0  0  0  0  0  0
  135.6504  118.6765  138.0853 C   0  0  0  0  0  0  0  0  0  0  0  0
  136.1179  117.2407  137.9844 C   0  0  0  0  0  0  0  0  0  0  0  0
  137.7267  116.2102  136.3125 C   0  0  1  0  0  0  0  0  0  0  0  0
  137.8416  116.8474  134.9910 C   0  0  0  0  0  0  0  0  0  0  0  0
  136.7098  117.2827  134.3296 C   0  0  0  0  0  0  0  0  0  0  0  0
  136.7286  117.8765  133.0956 C   0  0  0  0  0  0  0  0  0  0  0  0
  137.9559  118.0436  132.4881 C   0  0  0  0  0  0  0  0  0  0  0  0
  137.9434  118.8102  130.9007 Cl  0  0  0  0  0  0  0  0  0  0  0  0
  139.1034  117.6286  133.1034 C   0  0  0  0  0  0  0  0  0  0  0  0
  139.0462  117.0310  134.3537 C   0  0  0  0  0  0  0  0  0  0  0  0
  139.4313  114.1350  138.8206 H   0  0  0  0  0  0  0  0  0  0  0  0
  140.3358  112.8573  137.8786 H   0  0  0  0  0  0  0  0  0  0  0  0
  138.5675  112.8506  137.9606 H   0  0  0  0  0  0  0  0  0  0  0  0
  140.2329  114.3384  136.0457 H   0  0  0  0  0  0  0  0  0  0  0  0
  137.6119  113.0733  136.5171 H   0  0  0  0  0  0  0  0  0  0  0  0
  137.5448  114.4549  135.3558 H   0  0  0  0  0  0  0  0  0  0  0  0
  138.6856  113.0244  135.0933 H   0  0  0  0  0  0  0  0  0  0  0  0
  139.0191  116.3433  138.9779 H   0  0  0  0  0  0  0  0  0  0  0  0
  137.5995  115.1879  138.5511 H   0  0  0  0  0  0  0  0  0  0  0  0
  138.1585  119.0641  136.7499 H   0  0  0  0  0  0  0  0  0  0  0  0
  139.4105  118.1248  137.7078 H   0  0  0  0  0  0  0  0  0  0  0  0
  138.5908  119.9255  139.0728 H   0  0  0  0  0  0  0  0  0  0  0  0
  138.1719  118.3307  139.7298 H   0  0  0  0  0  0  0  0  0  0  0  0
  135.4866  121.6540  137.8779 H   0  0  0  0  0  0  0  0  0  0  0  0
  133.1764  122.1373  139.7034 H   0  0  0  0  0  0  0  0  0  0  0  0
  133.7066  126.0119  141.3756 H   0  0  0  0  0  0  0  0  0  0  0  0
  136.9928  124.0166  139.6335 H   0  0  0  0  0  0  0  0  0  0  0  0
  134.6314  118.6269  138.5290 H   0  0  0  0  0  0  0  0  0  0  0  0
  135.5380  119.1407  137.0869 H   0  0  0  0  0  0  0  0  0  0  0  0
  135.4437  116.7304  137.2653 H   0  0  0  0  0  0  0  0  0  0  0  0
  135.9936  116.7395  138.9606 H   0  0  0  0  0  0  0  0  0  0  0  0
  136.8587  115.4734  136.3479 H   0  0  0  0  0  0  0  0  0  0  0  0
  135.7354  117.1550  134.8021 H   0  0  0  0  0  0  0  0  0  0  0  0
  135.8014  118.2091  132.6051 H   0  0  0  0  0  0  0  0  0  0  0  0
  140.0519  117.7722  132.6044 H   0  0  0  0  0  0  0  0  0  0  0  0
  139.9928  116.7093  134.8042 H   0  0  0  0  0  0  0  0  0  0  0  0
  1  2  1  0
  2  3  1  0
  2  4  1  0
  4  5  1  0
  5  6  1  0
  6  7  1  0
  7  8  1  0
  8  9  1  0
  9 10  1  0
 10 11  2  0
 10 12  1  0
 12 13  1  0
 13 14  2  0
 14 15  1  0
 15 16  1  0
 15 17  2  0
 17 18  1  0
 18 19  1  0
 18 20  2  0
  9 21  1  0
 21 22  1  0
  6 23  1  0
 23 24  1  0
 24 25  2  0
 25 26  1  0
 26 27  2  0
 27 28  1  0
 27 29  1  0
 29 30  2  0
 23  4  1  0
 30 24  1  0
 22  6  1  0
 20 13  1  0
  1 31  1  0
  1 32  1  0
  1 33  1  0
  2 34  1  0
  3 35  1  0
  3 36  1  0
  3 37  1  0
  5 38  1  0
  5 39  1  0
  7 40  1  0
  7 41  1  0
  8 42  1  0
  8 43  1  0
 12 44  1  0
 14 45  1  0
 17 46  1  0
 20 47  1  0
 21 48  1  0
 21 49  1  0
 22 50  1  0
 22 51  1  0
 23 52  1  6
 25 53  1  0
 26 54  1  0
 29 55  1  0
 30 56  1  0
M  END
>  <docking_score>  (3) 
-7.5970000000000004

$$$$
