
     RDKit          3D

 59 62  0  0  0  0  0  0  0  0999 V2000
  128.1521  134.0357  138.5818 C   0  0  0  0  0  0  0  0  0  0  0  0
  129.0396  135.2343  138.2494 C   0  0  0  0  0  0  0  0  0  0  0  0
  128.2587  136.4581  138.6407 C   0  0  0  0  0  0  0  0  0  0  0  0
  130.2829  135.1237  139.0549 C   0  0  0  0  0  0  0  0  0  0  0  0
  131.4358  134.6585  138.3946 N   0  0  0  0  0  0  0  0  0  0  0  0
  132.7292  135.2647  138.7661 C   0  0  0  0  0  0  0  0  0  0  0  0
  133.2776  133.8849  138.2854 C   0  0  0  0  0  0  0  0  0  0  0  0
  134.5655  133.5116  138.9661 C   0  0  0  0  0  0  0  0  0  0  0  0
  135.0694  132.2355  138.3139 C   0  0  0  0  0  0  0  0  0  0  0  0
  135.2422  132.5008  136.9159 N   0  0  0  0  0  0  0  0  0  0  0  0
  136.4993  132.5479  136.2432 C   0  0  0  0  0  0  0  0  0  0  0  0
  137.3698  131.6718  136.5596 O   0  0  0  0  0  0  0  0  0  0  0  0
  136.7623  133.5227  135.2690 N   0  0  0  0  0  0  0  0  0  0  0  0
  137.9814  133.6122  134.5664 C   0  0  0  0  0  0  0  0  0  0  0  0
  138.0348  133.1085  133.2537 C   0  0  0  0  0  0  0  0  0  0  0  0
  139.1793  133.1324  132.4955 C   0  0  0  0  0  0  0  0  0  0  0  0
  139.1817  132.6387  131.2439 F   0  0  0  0  0  0  0  0  0  0  0  0
  140.3418  133.6612  133.0024 C   0  0  0  0  0  0  0  0  0  0  0  0
  140.3272  134.1564  134.2678 C   0  0  0  0  0  0  0  0  0  0  0  0
  141.4717  134.6775  134.7681 F   0  0  0  0  0  0  0  0  0  0  0  0
  139.1623  134.1272  135.0274 C   0  0  0  0  0  0  0  0  0  0  0  0
  134.0050  132.7444  136.1726 C   0  0  0  0  0  0  0  0  0  0  0  0
  133.3549  133.9395  136.8130 C   0  0  0  0  0  0  0  0  0  0  0  0
  132.0211  133.4488  138.9668 C   0  0  2  0  0  0  0  0  0  0  0  0
  131.4081  132.1758  138.6742 C   0  0  0  0  0  0  0  0  0  0  0  0
  130.7475  131.8377  137.5224 C   0  0  0  0  0  0  0  0  0  0  0  0
  130.1957  130.5647  137.3354 C   0  0  0  0  0  0  0  0  0  0  0  0
  130.3147  129.6223  138.3281 C   0  0  0  0  0  0  0  0  0  0  0  0
  129.6487  128.0106  138.1551 Cl  0  0  0  0  0  0  0  0  0  0  0  0
  130.9708  129.9235  139.4994 C   0  0  0  0  0  0  0  0  0  0  0  0
  131.4961  131.1736  139.6481 C   0  0  0  0  0  0  0  0  0  0  0  0
  127.7742  133.6503  137.6145 H   0  0  0  0  0  0  0  0  0  0  0  0
  127.2768  134.3506  139.1850 H   0  0  0  0  0  0  0  0  0  0  0  0
  128.7395  133.2460  139.1133 H   0  0  0  0  0  0  0  0  0  0  0  0
  129.2360  135.2003  137.1548 H   0  0  0  0  0  0  0  0  0  0  0  0
  128.9379  137.2707  139.0192 H   0  0  0  0  0  0  0  0  0  0  0  0
  127.7782  136.9413  137.7354 H   0  0  0  0  0  0  0  0  0  0  0  0
  127.4141  136.2475  139.3130 H   0  0  0  0  0  0  0  0  0  0  0  0
  130.0726  134.3843  139.8858 H   0  0  0  0  0  0  0  0  0  0  0  0
  130.4857  136.0766  139.5944 H   0  0  0  0  0  0  0  0  0  0  0  0
  133.0691  136.0868  138.1481 H   0  0  0  0  0  0  0  0  0  0  0  0
  132.9375  135.2917  139.8473 H   0  0  0  0  0  0  0  0  0  0  0  0
  134.3317  133.2475  140.0167 H   0  0  0  0  0  0  0  0  0  0  0  0
  135.3506  134.2670  138.8793 H   0  0  0  0  0  0  0  0  0  0  0  0
  135.9317  131.8327  138.8313 H   0  0  0  0  0  0  0  0  0  0  0  0
  134.2709  131.4389  138.4015 H   0  0  0  0  0  0  0  0  0  0  0  0
  136.0072  134.2415  135.0306 H   0  0  0  0  0  0  0  0  0  0  0  0
  137.1266  132.6922  132.8428 H   0  0  0  0  0  0  0  0  0  0  0  0
  141.2606  133.6904  132.4197 H   0  0  0  0  0  0  0  0  0  0  0  0
  139.2174  134.5226  136.0257 H   0  0  0  0  0  0  0  0  0  0  0  0
  133.3888  131.8524  136.1200 H   0  0  0  0  0  0  0  0  0  0  0  0
  134.2902  133.0532  135.1508 H   0  0  0  0  0  0  0  0  0  0  0  0
  132.3738  134.1740  136.3846 H   0  0  0  0  0  0  0  0  0  0  0  0
  133.9893  134.8467  136.5549 H   0  0  0  0  0  0  0  0  0  0  0  0
  132.1191  133.6594  140.0786 H   0  0  0  0  0  0  0  0  0  0  0  0
  130.6202  132.5480  136.7102 H   0  0  0  0  0  0  0  0  0  0  0  0
  129.6746  130.3250  136.4037 H   0  0  0  0  0  0  0  0  0  0  0  0
  131.0772  129.1880  140.3060 H   0  0  0  0  0  0  0  0  0  0  0  0
  132.0122  131.3789  140.5963 H   0  0  0  0  0  0  0  0  0  0  0  0
  1  2  1  0
  2  3  1  0
  2  4  1  0
  4  5  1  0
  5  6  1  0
  6  7  1  0
  7  8  1  0
  8  9  1  0
  9 10  1  0
 10 11  1  0
 11 12  2  0
 11 13  1  0
 13 14  1  0
 14 15  2  0
 15 16  1  0
 16 17  1  0
 16 18  2  0
 18 19  1  0
 19 20  1  0
 19 21  2  0
 10 22  1  0
 22 23  1  0
  7 24  1  0
 24 25  1  0
 25 26  2  0
 26 27  1  0
 27 28  2  0
 28 29  1  0
 28 30  1  0
 30 31  2  0
 24  5  1  0
 31 25  1  0
 23  7  1  0
 21 14  1  0
  1 32  1  0
  1 33  1  0
  1 34  1  0
  2 35  1  0
  3 36  1  0
  3 37  1  0
  3 38  1  0
  4 39  1  0
  4 40  1  0
  6 41  1  0
  6 42  1  0
  8 43  1  0
  8 44  1  0
  9 45  1  0
  9 46  1  0
 13 47  1  0
 15 48  1  0
 18 49  1  0
 21 50  1  0
 22 51  1  0
 22 52  1  0
 23 53  1  0
 23 54  1  0
 24 55  1  1
 26 56  1  0
 27 57  1  0
 30 58  1  0
 31 59  1  0
M  END
>  <docking_score>  (1) 
-8.0280000000000005

$$$$

     RDKit          3D

 59 62  0  0  0  0  0  0  0  0999 V2000
  129.3692  142.5378  138.8105 C   0  0  0  0  0  0  0  0  0  0  0  0
  129.2664  142.7301  140.3228 C   0  0  0  0  0  0  0  0  0  0  0  0
  127.8100  142.5868  140.6676 C   0  0  0  0  0  0  0  0  0  0  0  0
  130.0693  141.6657  140.9778 C   0  0  0  0  0  0  0  0  0  0  0  0
  129.8602  140.3438  140.5409 N   0  0  0  0  0  0  0  0  0  0  0  0
  130.9221  139.7139  139.7323 C   0  0  0  0  0  0  0  0  0  0  0  0
  130.3164  138.4070  140.3331 C   0  0  0  0  0  0  0  0  0  0  0  0
  131.3286  137.2994  140.4325 C   0  0  0  0  0  0  0  0  0  0  0  0
  130.5914  136.0513  140.8870 C   0  0  0  0  0  0  0  0  0  0  0  0
  129.5669  135.7762  139.9229 N   0  0  0  0  0  0  0  0  0  0  0  0
  129.5536  134.6529  139.0437 C   0  0  0  0  0  0  0  0  0  0  0  0
  128.5397  134.5115  138.2840 O   0  0  0  0  0  0  0  0  0  0  0  0
  130.6201  133.7416  139.0184 N   0  0  0  0  0  0  0  0  0  0  0  0
  130.6656  132.6198  138.1655 C   0  0  0  0  0  0  0  0  0  0  0  0
  131.2075  132.7813  136.8771 C   0  0  0  0  0  0  0  0  0  0  0  0
  131.2784  131.7551  135.9677 C   0  0  0  0  0  0  0  0  0  0  0  0
  131.8058  131.9577  134.7466 F   0  0  0  0  0  0  0  0  0  0  0  0
  130.8119  130.5033  136.2895 C   0  0  0  0  0  0  0  0  0  0  0  0
  130.2809  130.3110  137.5256 C   0  0  0  0  0  0  0  0  0  0  0  0
  129.8211  129.0785  137.8437 F   0  0  0  0  0  0  0  0  0  0  0  0
  130.2138  131.3576  138.4393 C   0  0  0  0  0  0  0  0  0  0  0  0
  128.4827  136.7583  139.8718 C   0  0  0  0  0  0  0  0  0  0  0  0
  129.1214  138.0768  139.5331 C   0  0  0  0  0  0  0  0  0  0  0  0
  130.2145  139.3152  141.5155 C   0  0  2  0  0  0  0  0  0  0  0  0
  129.3019  139.0420  142.5992 C   0  0  0  0  0  0  0  0  0  0  0  0
  129.4404  138.0671  143.5518 C   0  0  0  0  0  0  0  0  0  0  0  0
  128.4968  137.8929  144.5713 C   0  0  0  0  0  0  0  0  0  0  0  0
  127.3989  138.7170  144.6261 C   0  0  0  0  0  0  0  0  0  0  0  0
  126.1833  138.5526  145.8777 Cl  0  0  0  0  0  0  0  0  0  0  0  0
  127.2241  139.7078  143.6876 C   0  0  0  0  0  0  0  0  0  0  0  0
  128.1629  139.8492  142.7081 C   0  0  0  0  0  0  0  0  0  0  0  0
  129.9604  141.6143  138.6535 H   0  0  0  0  0  0  0  0  0  0  0  0
  129.9239  143.3772  138.3447 H   0  0  0  0  0  0  0  0  0  0  0  0
  128.3523  142.4313  138.3569 H   0  0  0  0  0  0  0  0  0  0  0  0
  129.6471  143.7511  140.5477 H   0  0  0  0  0  0  0  0  0  0  0  0
  127.6509  141.7812  141.4361 H   0  0  0  0  0  0  0  0  0  0  0  0
  127.4239  143.5112  141.1971 H   0  0  0  0  0  0  0  0  0  0  0  0
  127.1553  142.4870  139.7894 H   0  0  0  0  0  0  0  0  0  0  0  0
  129.8036  141.6823  142.0780 H   0  0  0  0  0  0  0  0  0  0  0  0
  131.1517  141.9271  140.9634 H   0  0  0  0  0  0  0  0  0  0  0  0
  130.8048  139.7719  138.6570 H   0  0  0  0  0  0  0  0  0  0  0  0
  131.9347  139.7801  140.1604 H   0  0  0  0  0  0  0  0  0  0  0  0
  132.0333  137.5538  141.2490 H   0  0  0  0  0  0  0  0  0  0  0  0
  131.8312  137.0691  139.4896 H   0  0  0  0  0  0  0  0  0  0  0  0
  131.2730  135.2371  141.1015 H   0  0  0  0  0  0  0  0  0  0  0  0
  130.0707  136.2695  141.8673 H   0  0  0  0  0  0  0  0  0  0  0  0
  131.4537  133.8931  139.6711 H   0  0  0  0  0  0  0  0  0  0  0  0
  131.5799  133.7602  136.6127 H   0  0  0  0  0  0  0  0  0  0  0  0
  130.8577  129.6753  135.5847 H   0  0  0  0  0  0  0  0  0  0  0  0
  129.7717  131.1460  139.3963 H   0  0  0  0  0  0  0  0  0  0  0  0
  127.8918  136.7481  140.7822 H   0  0  0  0  0  0  0  0  0  0  0  0
  127.8385  136.4931  139.0142 H   0  0  0  0  0  0  0  0  0  0  0  0
  128.4109  138.9111  139.5403 H   0  0  0  0  0  0  0  0  0  0  0  0
  129.4622  138.0177  138.4503 H   0  0  0  0  0  0  0  0  0  0  0  0
  131.2635  139.5787  141.8623 H   0  0  0  0  0  0  0  0  0  0  0  0
  130.2865  137.3854  143.5494 H   0  0  0  0  0  0  0  0  0  0  0  0
  128.6362  137.1055  145.3180 H   0  0  0  0  0  0  0  0  0  0  0  0
  126.3552  140.3768  143.7106 H   0  0  0  0  0  0  0  0  0  0  0  0
  127.9903  140.6499  141.9755 H   0  0  0  0  0  0  0  0  0  0  0  0
  1  2  1  0
  2  3  1  0
  2  4  1  0
  4  5  1  0
  5  6  1  0
  6  7  1  0
  7  8  1  0
  8  9  1  0
  9 10  1  0
 10 11  1  0
 11 12  2  0
 11 13  1  0
 13 14  1  0
 14 15  2  0
 15 16  1  0
 16 17  1  0
 16 18  2  0
 18 19  1  0
 19 20  1  0
 19 21  2  0
 10 22  1  0
 22 23  1  0
  7 24  1  0
 24 25  1  0
 25 26  2  0
 26 27  1  0
 27 28  2  0
 28 29  1  0
 28 30  1  0
 30 31  2  0
 24  5  1  0
 31 25  1  0
 23  7  1  0
 21 14  1  0
  1 32  1  0
  1 33  1  0
  1 34  1  0
  2 35  1  0
  3 36  1  0
  3 37  1  0
  3 38  1  0
  4 39  1  0
  4 40  1  0
  6 41  1  0
  6 42  1  0
  8 43  1  0
  8 44  1  0
  9 45  1  0
  9 46  1  0
 13 47  1  0
 15 48  1  0
 18 49  1  0
 21 50  1  0
 22 51  1  0
 22 52  1  0
 23 53  1  0
 23 54  1  0
 24 55  1  1
 26 56  1  0
 27 57  1  0
 30 58  1  0
 31 59  1  0
M  END
>  <docking_score>  (2) 
-7.2859999999999996

$$$$

     RDKit          3D

 59 62  0  0  0  0  0  0  0  0999 V2000
  133.0953  133.0506  139.0935 C   0  0  0  0  0  0  0  0  0  0  0  0
  132.6350  133.7044  137.7914 C   0  0  0  0  0  0  0  0  0  0  0  0
  133.7110  134.6820  137.4076 C   0  0  0  0  0  0  0  0  0  0  0  0
  132.5008  132.6398  136.7641 C   0  0  0  0  0  0  0  0  0  0  0  0
  133.0155  131.3695  137.0857 N   0  0  0  0  0  0  0  0  0  0  0  0
  132.2971  130.1886  136.5683 C   0  0  0  0  0  0  0  0  0  0  0  0
  133.7108  129.5374  136.6825 C   0  0  0  0  0  0  0  0  0  0  0  0
  133.9062  128.4161  135.6999 C   0  0  0  0  0  0  0  0  0  0  0  0
  135.2483  127.7736  136.0064 C   0  0  0  0  0  0  0  0  0  0  0  0
  135.2110  127.3158  137.3642 N   0  0  0  0  0  0  0  0  0  0  0  0
  135.2184  125.9466  137.7645 C   0  0  0  0  0  0  0  0  0  0  0  0
  135.2894  125.0649  136.8464 O   0  0  0  0  0  0  0  0  0  0  0  0
  135.1517  125.5887  139.1195 N   0  0  0  0  0  0  0  0  0  0  0  0
  135.1641  124.2541  139.5739 C   0  0  0  0  0  0  0  0  0  0  0  0
  133.9465  123.5502  139.6133 C   0  0  0  0  0  0  0  0  0  0  0  0
  133.8524  122.2543  140.0574 C   0  0  0  0  0  0  0  0  0  0  0  0
  132.6650  121.6217  140.0765 F   0  0  0  0  0  0  0  0  0  0  0  0
  134.9697  121.5814  140.4899 C   0  0  0  0  0  0  0  0  0  0  0  0
  136.1631  122.2308  140.4665 C   0  0  0  0  0  0  0  0  0  0  0  0
  137.2642  121.5691  140.8922 F   0  0  0  0  0  0  0  0  0  0  0  0
  136.2473  123.5437  140.0147 C   0  0  0  0  0  0  0  0  0  0  0  0
  135.1515  128.3732  138.3746 C   0  0  0  0  0  0  0  0  0  0  0  0
  133.8978  129.1552  138.0954 C   0  0  0  0  0  0  0  0  0  0  0  0
  134.0852  130.9037  136.2069 C   0  0  2  0  0  0  0  0  0  0  0  0
  135.4160  131.4287  136.3949 C   0  0  0  0  0  0  0  0  0  0  0  0
  136.1953  131.2860  137.5128 C   0  0  0  0  0  0  0  0  0  0  0  0
  137.4834  131.8293  137.5879 C   0  0  0  0  0  0  0  0  0  0  0  0
  137.9882  132.5261  136.5169 C   0  0  0  0  0  0  0  0  0  0  0  0
  139.5935  133.2284  136.5467 Cl  0  0  0  0  0  0  0  0  0  0  0  0
  137.2363  132.6912  135.3764 C   0  0  0  0  0  0  0  0  0  0  0  0
  135.9854  132.1488  135.3376 C   0  0  0  0  0  0  0  0  0  0  0  0
  134.1868  132.8907  138.9928 H   0  0  0  0  0  0  0  0  0  0  0  0
  132.6192  132.0579  139.2241 H   0  0  0  0  0  0  0  0  0  0  0  0
  132.8777  133.7153  139.9664 H   0  0  0  0  0  0  0  0  0  0  0  0
  131.6696  134.2139  138.0065 H   0  0  0  0  0  0  0  0  0  0  0  0
  133.8427  135.4728  138.1964 H   0  0  0  0  0  0  0  0  0  0  0  0
  134.7277  134.1819  137.3888 H   0  0  0  0  0  0  0  0  0  0  0  0
  133.5945  135.0924  136.3939 H   0  0  0  0  0  0  0  0  0  0  0  0
  133.0686  132.9904  135.8499 H   0  0  0  0  0  0  0  0  0  0  0  0
  131.4475  132.5685  136.4097 H   0  0  0  0  0  0  0  0  0  0  0  0
  131.5742  129.7360  137.2361 H   0  0  0  0  0  0  0  0  0  0  0  0
  132.0814  130.2108  135.4884 H   0  0  0  0  0  0  0  0  0  0  0  0
  134.0027  128.8611  134.6896 H   0  0  0  0  0  0  0  0  0  0  0  0
  133.1403  127.6381  135.7535 H   0  0  0  0  0  0  0  0  0  0  0  0
  135.5194  127.0340  135.2628 H   0  0  0  0  0  0  0  0  0  0  0  0
  136.0552  128.5643  135.9477 H   0  0  0  0  0  0  0  0  0  0  0  0
  135.0926  126.3568  139.8614 H   0  0  0  0  0  0  0  0  0  0  0  0
  133.0611  124.0674  139.2737 H   0  0  0  0  0  0  0  0  0  0  0  0
  134.9186  120.5543  140.8462 H   0  0  0  0  0  0  0  0  0  0  0  0
  137.2173  124.0074  140.0319 H   0  0  0  0  0  0  0  0  0  0  0  0
  136.0673  128.9554  138.3974 H   0  0  0  0  0  0  0  0  0  0  0  0
  135.0038  127.8844  139.3544 H   0  0  0  0  0  0  0  0  0  0  0  0
  133.7832  130.0278  138.7485 H   0  0  0  0  0  0  0  0  0  0  0  0
  133.0179  128.4906  138.3708 H   0  0  0  0  0  0  0  0  0  0  0  0
  133.6886  131.0421  135.1516 H   0  0  0  0  0  0  0  0  0  0  0  0
  135.8407  130.7500  138.3888 H   0  0  0  0  0  0  0  0  0  0  0  0
  138.0815  131.6974  138.4945 H   0  0  0  0  0  0  0  0  0  0  0  0
  137.6178  133.2444  134.5096 H   0  0  0  0  0  0  0  0  0  0  0  0
  135.4134  132.3012  134.4116 H   0  0  0  0  0  0  0  0  0  0  0  0
  1  2  1  0
  2  3  1  0
  2  4  1  0
  4  5  1  0
  5  6  1  0
  6  7  1  0
  7  8  1  0
  8  9  1  0
  9 10  1  0
 10 11  1  0
 11 12  2  0
 11 13  1  0
 13 14  1  0
 14 15  2  0
 15 16  1  0
 16 17  1  0
 16 18  2  0
 18 19  1  0
 19 20  1  0
 19 21  2  0
 10 22  1  0
 22 23  1  0
  7 24  1  0
 24 25  1  0
 25 26  2  0
 26 27  1  0
 27 28  2  0
 28 29  1  0
 28 30  1  0
 30 31  2  0
 24  5  1  0
 31 25  1  0
 23  7  1  0
 21 14  1  0
  1 32  1  0
  1 33  1  0
  1 34  1  0
  2 35  1  0
  3 36  1  0
  3 37  1  0
  3 38  1  0
  4 39  1  0
  4 40  1  0
  6 41  1  0
  6 42  1  0
  8 43  1  0
  8 44  1  0
  9 45  1  0
  9 46  1  0
 13 47  1  0
 15 48  1  0
 18 49  1  0
 21 50  1  0
 22 51  1  0
 22 52  1  0
 23 53  1  0
 23 54  1  0
 24 55  1  6
 26 56  1  0
 27 57  1  0
 30 58  1  0
 31 59  1  0
M  END
>  <docking_score>  (3) 
-7.2789999999999999

$$$$
