
     RDKit          3D

 67 69  0  0  0  0  0  0  0  0999 V2000
  136.3227  125.9924  142.4950 C   0  0  0  0  0  0  0  0  0  0  0  0
  136.5649  124.6587  141.7858 C   0  0  0  0  0  0  0  0  0  0  0  0
  135.9166  124.6540  140.4401 C   0  0  2  0  0  0  0  0  0  0  0  0
  135.2908  126.0037  140.1862 C   0  0  0  0  0  0  0  0  0  0  0  0
  134.8845  123.5563  140.3005 C   0  0  2  0  0  0  0  0  0  0  0  0
  135.3971  122.4946  139.4328 N   0  0  0  0  0  0  0  0  0  0  0  0
  135.3306  121.1637  139.8911 C   0  0  0  0  0  0  0  0  0  0  0  0
  134.8272  120.9312  141.0395 O   0  0  0  0  0  0  0  0  0  0  0  0
  135.7920  120.0491  139.1527 N   0  0  0  0  0  0  0  0  0  0  0  0
  135.1031  118.8138  139.2766 C   0  0  0  0  0  0  0  0  0  0  0  0
  135.4519  117.7223  138.3445 C   0  0  0  0  0  0  0  0  0  0  0  0
  136.6290  117.9637  137.4441 C   0  0  0  0  0  0  0  0  0  0  0  0
  136.6244  119.3822  137.0300 C   0  0  0  0  0  0  0  0  0  0  0  0
  136.9368  120.1851  138.3015 C   0  0  0  0  0  0  0  0  0  0  0  0
  137.9628  117.4767  138.0275 C   0  0  0  0  0  0  0  0  0  0  0  0
  137.8077  116.3104  137.2413 N   0  0  0  0  0  0  0  0  0  0  0  0
  138.9017  115.5698  136.7764 C   0  0  0  0  0  0  0  0  0  0  0  0
  139.6928  114.9848  137.9546 C   0  0  0  0  0  0  0  0  0  0  0  0
  138.3534  114.3338  136.0409 C   0  0  0  0  0  0  0  0  0  0  0  0
  136.8551  116.9090  136.3988 C   0  0  2  0  0  0  0  0  0  0  0  0
  137.1998  117.3411  135.0498 C   0  0  0  0  0  0  0  0  0  0  0  0
  136.2783  117.2730  134.0095 C   0  0  0  0  0  0  0  0  0  0  0  0
  136.5372  117.6618  132.7231 C   0  0  0  0  0  0  0  0  0  0  0  0
  137.7659  118.1518  132.4056 C   0  0  0  0  0  0  0  0  0  0  0  0
  138.1133  118.6570  130.7517 Cl  0  0  0  0  0  0  0  0  0  0  0  0
  138.7240  118.2467  133.3846 C   0  0  0  0  0  0  0  0  0  0  0  0
  138.4434  117.8455  134.6926 C   0  0  0  0  0  0  0  0  0  0  0  0
  133.5755  124.0367  139.8078 C   0  0  0  0  0  0  0  0  0  0  0  0
  133.4234  124.1800  138.5684 O   0  0  0  0  0  0  0  0  0  0  0  0
  132.5000  124.3406  140.6143 O   0  0  0  0  0  0  0  0  0  0  0  0
  131.1554  124.2643  140.2321 C   0  0  0  0  0  0  0  0  0  0  0  0
  136.8979  126.0595  143.4399 H   0  0  0  0  0  0  0  0  0  0  0  0
  135.2554  126.1818  142.6353 H   0  0  0  0  0  0  0  0  0  0  0  0
  136.6919  126.8109  141.8320 H   0  0  0  0  0  0  0  0  0  0  0  0
  137.6228  124.4001  141.7117 H   0  0  0  0  0  0  0  0  0  0  0  0
  136.0622  123.8374  142.3822 H   0  0  0  0  0  0  0  0  0  0  0  0
  136.7300  124.5392  139.6902 H   0  0  0  0  0  0  0  0  0  0  0  0
  135.9143  126.7892  140.6636 H   0  0  0  0  0  0  0  0  0  0  0  0
  135.2764  126.2355  139.1039 H   0  0  0  0  0  0  0  0  0  0  0  0
  134.2744  126.0008  140.6367 H   0  0  0  0  0  0  0  0  0  0  0  0
  134.7412  123.1303  141.3076 H   0  0  0  0  0  0  0  0  0  0  0  0
  135.8039  122.7099  138.4922 H   0  0  0  0  0  0  0  0  0  0  0  0
  135.3008  118.4323  140.3234 H   0  0  0  0  0  0  0  0  0  0  0  0
  134.0015  119.0380  139.2953 H   0  0  0  0  0  0  0  0  0  0  0  0
  134.5661  117.5842  137.6534 H   0  0  0  0  0  0  0  0  0  0  0  0
  135.5212  116.7193  138.8612 H   0  0  0  0  0  0  0  0  0  0  0  0
  137.2233  119.6808  136.1834 H   0  0  0  0  0  0  0  0  0  0  0  0
  135.5625  119.6582  136.7879 H   0  0  0  0  0  0  0  0  0  0  0  0
  137.1947  121.2326  138.0644 H   0  0  0  0  0  0  0  0  0  0  0  0
  137.8329  119.7283  138.7790 H   0  0  0  0  0  0  0  0  0  0  0  0
  137.8019  117.2355  139.1160 H   0  0  0  0  0  0  0  0  0  0  0  0
  138.8083  118.1401  137.8648 H   0  0  0  0  0  0  0  0  0  0  0  0
  139.5795  116.0479  136.0500 H   0  0  0  0  0  0  0  0  0  0  0  0
  140.4977  114.3301  137.6108 H   0  0  0  0  0  0  0  0  0  0  0  0
  140.1005  115.7537  138.6055 H   0  0  0  0  0  0  0  0  0  0  0  0
  138.9719  114.3815  138.5428 H   0  0  0  0  0  0  0  0  0  0  0  0
  139.1027  113.5436  136.0524 H   0  0  0  0  0  0  0  0  0  0  0  0
  138.0776  114.6536  135.0091 H   0  0  0  0  0  0  0  0  0  0  0  0
  137.3825  114.0429  136.5204 H   0  0  0  0  0  0  0  0  0  0  0  0
  135.9368  116.2468  136.3646 H   0  0  0  0  0  0  0  0  0  0  0  0
  135.2958  116.8859  134.2433 H   0  0  0  0  0  0  0  0  0  0  0  0
  135.7580  117.5792  131.9501 H   0  0  0  0  0  0  0  0  0  0  0  0
  139.6930  118.6308  133.1447 H   0  0  0  0  0  0  0  0  0  0  0  0
  139.2139  117.9381  135.4132 H   0  0  0  0  0  0  0  0  0  0  0  0
  130.8481  123.1938  140.2873 H   0  0  0  0  0  0  0  0  0  0  0  0
  131.0215  124.5547  139.1677 H   0  0  0  0  0  0  0  0  0  0  0  0
  130.5670  124.9068  140.9061 H   0  0  0  0  0  0  0  0  0  0  0  0
  1  2  1  0
  2  3  1  0
  3  4  1  0
  3  5  1  0
  5  6  1  0
  6  7  1  0
  7  8  2  0
  7  9  1  0
  9 10  1  0
 10 11  1  0
 11 12  1  0
 12 13  1  0
 13 14  1  0
 12 15  1  0
 15 16  1  0
 16 17  1  0
 17 18  1  0
 17 19  1  0
 16 20  1  0
 20 21  1  0
 21 22  2  0
 22 23  1  0
 23 24  2  0
 24 25  1  0
 24 26  1  0
 26 27  2  0
  5 28  1  0
 28 29  2  0
 28 30  1  0
 30 31  1  0
 14  9  1  0
 27 21  1  0
 20 12  1  0
  1 32  1  0
  1 33  1  0
  1 34  1  0
  2 35  1  0
  2 36  1  0
  3 37  1  6
  4 38  1  0
  4 39  1  0
  4 40  1  0
  5 41  1  1
  6 42  1  0
 10 43  1  0
 10 44  1  0
 11 45  1  0
 11 46  1  0
 13 47  1  0
 13 48  1  0
 14 49  1  0
 14 50  1  0
 15 51  1  0
 15 52  1  0
 17 53  1  0
 18 54  1  0
 18 55  1  0
 18 56  1  0
 19 57  1  0
 19 58  1  0
 19 59  1  0
 20 60  1  6
 22 61  1  0
 23 62  1  0
 26 63  1  0
 27 64  1  0
 31 65  1  0
 31 66  1  0
 31 67  1  0
M  END
>  <docking_score>  (1) 
-7.4939999999999998

$$$$

     RDKit          3D

 67 69  0  0  0  0  0  0  0  0999 V2000
  149.4474  136.0208  144.1575 C   0  0  0  0  0  0  0  0  0  0  0  0
  148.8380  136.7154  142.9382 C   0  0  0  0  0  0  0  0  0  0  0  0
  149.4877  138.0408  142.7095 C   0  0  2  0  0  0  0  0  0  0  0  0
  149.6092  138.7676  144.0266 C   0  0  0  0  0  0  0  0  0  0  0  0
  148.7361  138.8863  141.7046 C   0  0  2  0  0  0  0  0  0  0  0  0
  147.8358  138.0441  140.9155 N   0  0  0  0  0  0  0  0  0  0  0  0
  146.7467  138.6550  140.2624 C   0  0  0  0  0  0  0  0  0  0  0  0
  146.5850  139.9145  140.3796 O   0  0  0  0  0  0  0  0  0  0  0  0
  145.8045  137.9555  139.4729 N   0  0  0  0  0  0  0  0  0  0  0  0
  144.7762  138.6891  138.8246 C   0  0  0  0  0  0  0  0  0  0  0  0
  143.9350  137.9874  137.8338 C   0  0  0  0  0  0  0  0  0  0  0  0
  144.1381  136.5043  137.7163 C   0  0  0  0  0  0  0  0  0  0  0  0
  145.5772  136.2100  137.8776 C   0  0  0  0  0  0  0  0  0  0  0  0
  145.9031  136.5317  139.3436 C   0  0  0  0  0  0  0  0  0  0  0  0
  143.2154  135.6807  138.6257 C   0  0  0  0  0  0  0  0  0  0  0  0
  142.3801  135.4912  137.4994 N   0  0  0  0  0  0  0  0  0  0  0  0
  141.5656  134.3613  137.3528 C   0  0  0  0  0  0  0  0  0  0  0  0
  140.8072  134.0742  138.6561 C   0  0  0  0  0  0  0  0  0  0  0  0
  140.4581  134.7089  136.3419 C   0  0  0  0  0  0  0  0  0  0  0  0
  143.3906  135.8488  136.5903 C   0  0  2  0  0  0  0  0  0  0  0  0
  144.0872  134.8442  135.7959 C   0  0  0  0  0  0  0  0  0  0  0  0
  144.6473  135.1573  134.5613 C   0  0  0  0  0  0  0  0  0  0  0  0
  145.3131  134.2632  133.7674 C   0  0  0  0  0  0  0  0  0  0  0  0
  145.4554  132.9754  134.1819 C   0  0  0  0  0  0  0  0  0  0  0  0
  146.3116  131.8125  133.1690 Cl  0  0  0  0  0  0  0  0  0  0  0  0
  144.9266  132.5975  135.3915 C   0  0  0  0  0  0  0  0  0  0  0  0
  144.2498  133.5224  136.1896 C   0  0  0  0  0  0  0  0  0  0  0  0
  149.6200  139.6699  140.8148 C   0  0  0  0  0  0  0  0  0  0  0  0
  150.3355  139.0474  139.9900 O   0  0  0  0  0  0  0  0  0  0  0  0
  149.7172  141.0447  140.8222 O   0  0  0  0  0  0  0  0  0  0  0  0
  150.2624  141.8114  141.8589 C   0  0  0  0  0  0  0  0  0  0  0  0
  148.8869  135.1023  144.4229 H   0  0  0  0  0  0  0  0  0  0  0  0
  149.5518  136.7104  144.9989 H   0  0  0  0  0  0  0  0  0  0  0  0
  150.4845  135.7031  143.8944 H   0  0  0  0  0  0  0  0  0  0  0  0
  148.8714  136.1020  142.0359 H   0  0  0  0  0  0  0  0  0  0  0  0
  147.7472  136.9307  143.1544 H   0  0  0  0  0  0  0  0  0  0  0  0
  150.5260  137.8367  142.3668 H   0  0  0  0  0  0  0  0  0  0  0  0
  150.6802  138.8191  144.3162 H   0  0  0  0  0  0  0  0  0  0  0  0
  149.2632  139.8150  143.9336 H   0  0  0  0  0  0  0  0  0  0  0  0
  149.0376  138.1943  144.7887 H   0  0  0  0  0  0  0  0  0  0  0  0
  148.1176  139.5900  142.2866 H   0  0  0  0  0  0  0  0  0  0  0  0
  147.9906  137.0118  140.8318 H   0  0  0  0  0  0  0  0  0  0  0  0
  144.0855  139.0710  139.6355 H   0  0  0  0  0  0  0  0  0  0  0  0
  145.2337  139.6331  138.4200 H   0  0  0  0  0  0  0  0  0  0  0  0
  144.2009  138.4103  136.8181 H   0  0  0  0  0  0  0  0  0  0  0  0
  142.8403  138.2516  137.9329 H   0  0  0  0  0  0  0  0  0  0  0  0
  145.9518  135.2483  137.5623 H   0  0  0  0  0  0  0  0  0  0  0  0
  146.1460  136.9849  137.2959 H   0  0  0  0  0  0  0  0  0  0  0  0
  146.8866  136.1240  139.6375 H   0  0  0  0  0  0  0  0  0  0  0  0
  145.1387  136.0297  139.9787 H   0  0  0  0  0  0  0  0  0  0  0  0
  142.7266  136.3835  139.3578 H   0  0  0  0  0  0  0  0  0  0  0  0
  143.6848  134.8287  139.1107 H   0  0  0  0  0  0  0  0  0  0  0  0
  142.0244  133.4401  136.9570 H   0  0  0  0  0  0  0  0  0  0  0  0
  140.5120  134.9985  139.1595 H   0  0  0  0  0  0  0  0  0  0  0  0
  139.9327  133.4482  138.4999 H   0  0  0  0  0  0  0  0  0  0  0  0
  141.5131  133.5239  139.3107 H   0  0  0  0  0  0  0  0  0  0  0  0
  139.5004  134.3503  136.7164 H   0  0  0  0  0  0  0  0  0  0  0  0
  140.7402  134.2501  135.3658 H   0  0  0  0  0  0  0  0  0  0  0  0
  140.4860  135.8146  136.1580 H   0  0  0  0  0  0  0  0  0  0  0  0
  142.9935  136.6641  135.9116 H   0  0  0  0  0  0  0  0  0  0  0  0
  144.5441  136.1768  134.2154 H   0  0  0  0  0  0  0  0  0  0  0  0
  145.7311  134.5824  132.8005 H   0  0  0  0  0  0  0  0  0  0  0  0
  145.0334  131.5871  135.7260 H   0  0  0  0  0  0  0  0  0  0  0  0
  143.8601  133.1843  137.1144 H   0  0  0  0  0  0  0  0  0  0  0  0
  150.3739  142.8559  141.4850 H   0  0  0  0  0  0  0  0  0  0  0  0
  151.2922  141.4767  142.1095 H   0  0  0  0  0  0  0  0  0  0  0  0
  149.5902  141.7449  142.7290 H   0  0  0  0  0  0  0  0  0  0  0  0
  1  2  1  0
  2  3  1  0
  3  4  1  0
  3  5  1  0
  5  6  1  0
  6  7  1  0
  7  8  2  0
  7  9  1  0
  9 10  1  0
 10 11  1  0
 11 12  1  0
 12 13  1  0
 13 14  1  0
 12 15  1  0
 15 16  1  0
 16 17  1  0
 17 18  1  0
 17 19  1  0
 16 20  1  0
 20 21  1  0
 21 22  2  0
 22 23  1  0
 23 24  2  0
 24 25  1  0
 24 26  1  0
 26 27  2  0
  5 28  1  0
 28 29  2  0
 28 30  1  0
 30 31  1  0
 14  9  1  0
 27 21  1  0
 20 12  1  0
  1 32  1  0
  1 33  1  0
  1 34  1  0
  2 35  1  0
  2 36  1  0
  3 37  1  6
  4 38  1  0
  4 39  1  0
  4 40  1  0
  5 41  1  1
  6 42  1  0
 10 43  1  0
 10 44  1  0
 11 45  1  0
 11 46  1  0
 13 47  1  0
 13 48  1  0
 14 49  1  0
 14 50  1  0
 15 51  1  0
 15 52  1  0
 17 53  1  0
 18 54  1  0
 18 55  1  0
 18 56  1  0
 19 57  1  0
 19 58  1  0
 19 59  1  0
 20 60  1  6
 22 61  1  0
 23 62  1  0
 26 63  1  0
 27 64  1  0
 31 65  1  0
 31 66  1  0
 31 67  1  0
M  END
>  <docking_score>  (2) 
-6.6379999999999999

$$$$

     RDKit          3D

 67 69  0  0  0  0  0  0  0  0999 V2000
  129.3772  134.5316  142.6564 C   0  0  0  0  0  0  0  0  0  0  0  0
  130.6870  135.3144  142.5457 C   0  0  0  0  0  0  0  0  0  0  0  0
  130.4605  136.6235  141.8628 C   0  0  2  0  0  0  0  0  0  0  0  0
  129.4227  137.4088  142.6273 C   0  0  0  0  0  0  0  0  0  0  0  0
  130.0412  136.4562  140.4186 C   0  0  2  0  0  0  0  0  0  0  0  0
  130.9649  135.5529  139.7305 N   0  0  0  0  0  0  0  0  0  0  0  0
  130.4265  134.5121  138.9478 C   0  0  0  0  0  0  0  0  0  0  0  0
  129.1593  134.3950  138.8649 O   0  0  0  0  0  0  0  0  0  0  0  0
  131.2079  133.5725  138.2359 N   0  0  0  0  0  0  0  0  0  0  0  0
  130.9304  133.3538  136.8608 C   0  0  0  0  0  0  0  0  0  0  0  0
  131.8825  132.5418  136.0759 C   0  0  0  0  0  0  0  0  0  0  0  0
  132.9868  131.8774  136.8463 C   0  0  0  0  0  0  0  0  0  0  0  0
  133.4288  132.7901  137.9212 C   0  0  0  0  0  0  0  0  0  0  0  0
  132.2555  132.8636  138.9096 C   0  0  0  0  0  0  0  0  0  0  0  0
  132.6425  130.4583  137.3196 C   0  0  0  0  0  0  0  0  0  0  0  0
  133.3580  129.9789  136.1969 N   0  0  0  0  0  0  0  0  0  0  0  0
  133.9945  128.7314  136.1915 C   0  0  0  0  0  0  0  0  0  0  0  0
  133.0948  127.6676  136.8357 C   0  0  0  0  0  0  0  0  0  0  0  0
  134.1243  128.2770  134.7265 C   0  0  0  0  0  0  0  0  0  0  0  0
  134.0289  131.1988  136.0039 C   0  0  2  0  0  0  0  0  0  0  0  0
  135.4285  131.3628  136.3777 C   0  0  0  0  0  0  0  0  0  0  0  0
  136.1693  132.4599  135.9491 C   0  0  0  0  0  0  0  0  0  0  0  0
  137.4839  132.6734  136.2637 C   0  0  0  0  0  0  0  0  0  0  0  0
  138.1406  131.7738  137.0450 C   0  0  0  0  0  0  0  0  0  0  0  0
  139.8350  132.0365  137.4587 Cl  0  0  0  0  0  0  0  0  0  0  0  0
  137.4694  130.6671  137.5032 C   0  0  0  0  0  0  0  0  0  0  0  0
  136.1277  130.4642  137.1728 C   0  0  0  0  0  0  0  0  0  0  0  0
  129.9299  137.7354  139.6848 C   0  0  0  0  0  0  0  0  0  0  0  0
  128.9026  137.9332  138.9882 O   0  0  0  0  0  0  0  0  0  0  0  0
  130.8772  138.7362  139.7096 O   0  0  0  0  0  0  0  0  0  0  0  0
  130.6586  140.0460  140.1528 C   0  0  0  0  0  0  0  0  0  0  0  0
  129.1771  134.2219  143.7014 H   0  0  0  0  0  0  0  0  0  0  0  0
  129.3525  133.6939  141.9549 H   0  0  0  0  0  0  0  0  0  0  0  0
  128.5419  135.2069  142.3528 H   0  0  0  0  0  0  0  0  0  0  0  0
  131.1832  135.4553  143.5077 H   0  0  0  0  0  0  0  0  0  0  0  0
  131.3996  134.7321  141.8854 H   0  0  0  0  0  0  0  0  0  0  0  0
  131.4098  137.1976  141.9422 H   0  0  0  0  0  0  0  0  0  0  0  0
  128.7110  137.8672  141.9082 H   0  0  0  0  0  0  0  0  0  0  0  0
  128.8216  136.7429  143.2757 H   0  0  0  0  0  0  0  0  0  0  0  0
  129.9477  138.2040  143.2002 H   0  0  0  0  0  0  0  0  0  0  0  0
  129.0480  135.9772  140.4336 H   0  0  0  0  0  0  0  0  0  0  0  0
  132.0023  135.6706  139.8116 H   0  0  0  0  0  0  0  0  0  0  0  0
  129.9274  132.8326  136.8081 H   0  0  0  0  0  0  0  0  0  0  0  0
  130.7182  134.3537  136.3924 H   0  0  0  0  0  0  0  0  0  0  0  0
  132.3981  133.2453  135.3544 H   0  0  0  0  0  0  0  0  0  0  0  0
  131.3618  131.8155  135.3837 H   0  0  0  0  0  0  0  0  0  0  0  0
  134.3770  132.6083  138.4032 H   0  0  0  0  0  0  0  0  0  0  0  0
  133.4816  133.8238  137.4840 H   0  0  0  0  0  0  0  0  0  0  0  0
  132.5616  133.3229  139.8662 H   0  0  0  0  0  0  0  0  0  0  0  0
  131.9367  131.8209  139.1352 H   0  0  0  0  0  0  0  0  0  0  0  0
  131.5372  130.2985  137.1728 H   0  0  0  0  0  0  0  0  0  0  0  0
  132.9722  130.2139  138.3261 H   0  0  0  0  0  0  0  0  0  0  0  0
  135.0195  128.6713  136.5932 H   0  0  0  0  0  0  0  0  0  0  0  0
  132.4933  128.0888  137.6453 H   0  0  0  0  0  0  0  0  0  0  0  0
  132.4453  127.1789  136.1144 H   0  0  0  0  0  0  0  0  0  0  0  0
  133.7755  126.9023  137.2610 H   0  0  0  0  0  0  0  0  0  0  0  0
  134.5249  127.2648  134.6954 H   0  0  0  0  0  0  0  0  0  0  0  0
  134.7748  129.0160  134.2035 H   0  0  0  0  0  0  0  0  0  0  0  0
  133.1209  128.3810  134.2372 H   0  0  0  0  0  0  0  0  0  0  0  0
  133.8797  131.5267  134.9300 H   0  0  0  0  0  0  0  0  0  0  0  0
  135.6635  133.1858  135.3270 H   0  0  0  0  0  0  0  0  0  0  0  0
  138.0074  133.5658  135.8882 H   0  0  0  0  0  0  0  0  0  0  0  0
  137.9772  129.9542  138.1182 H   0  0  0  0  0  0  0  0  0  0  0  0
  135.6524  129.5964  137.5502 H   0  0  0  0  0  0  0  0  0  0  0  0
  131.4713  140.2997  140.8728 H   0  0  0  0  0  0  0  0  0  0  0  0
  129.7149  140.1226  140.7349 H   0  0  0  0  0  0  0  0  0  0  0  0
  130.6503  140.7115  139.2752 H   0  0  0  0  0  0  0  0  0  0  0  0
  1  2  1  0
  2  3  1  0
  3  4  1  0
  3  5  1  0
  5  6  1  0
  6  7  1  0
  7  8  2  0
  7  9  1  0
  9 10  1  0
 10 11  1  0
 11 12  1  0
 12 13  1  0
 13 14  1  0
 12 15  1  0
 15 16  1  0
 16 17  1  0
 17 18  1  0
 17 19  1  0
 16 20  1  0
 20 21  1  0
 21 22  2  0
 22 23  1  0
 23 24  2  0
 24 25  1  0
 24 26  1  0
 26 27  2  0
  5 28  1  0
 28 29  2  0
 28 30  1  0
 30 31  1  0
 14  9  1  0
 27 21  1  0
 20 12  1  0
  1 32  1  0
  1 33  1  0
  1 34  1  0
  2 35  1  0
  2 36  1  0
  3 37  1  6
  4 38  1  0
  4 39  1  0
  4 40  1  0
  5 41  1  1
  6 42  1  0
 10 43  1  0
 10 44  1  0
 11 45  1  0
 11 46  1  0
 13 47  1  0
 13 48  1  0
 14 49  1  0
 14 50  1  0
 15 51  1  0
 15 52  1  0
 17 53  1  0
 18 54  1  0
 18 55  1  0
 18 56  1  0
 19 57  1  0
 19 58  1  0
 19 59  1  0
 20 60  1  6
 22 61  1  0
 23 62  1  0
 26 63  1  0
 27 64  1  0
 31 65  1  0
 31 66  1  0
 31 67  1  0
M  END
>  <docking_score>  (3) 
-6.2599999999999998

$$$$
