
     RDKit          3D

 29 33  0  0  0  0  0  0  0  0999 V2000
  134.0298  121.1879  140.4156 O   0  0  0  0  0  0  0  0  0  0  0  0
  135.0445  121.9401  140.3313 C   0  0  0  0  0  0  0  0  0  0  0  0
  136.2958  121.3356  140.6192 N   0  0  0  0  0  0  0  0  0  0  0  0
  136.5508  120.0062  140.9877 C   0  0  2  0  0  0  0  0  0  0  0  0
  138.0177  119.5569  140.7511 C   0  0  0  0  0  0  0  0  0  0  0  0
  136.7985  118.8326  140.1958 C   0  0  2  0  0  0  0  0  0  0  0  0
  136.7177  118.6562  138.7539 C   0  0  0  0  0  0  0  0  0  0  0  0
  137.6270  119.0509  137.8108 C   0  0  0  0  0  0  0  0  0  0  0  0
  137.3857  118.7980  136.4796 C   0  0  0  0  0  0  0  0  0  0  0  0
  136.2337  118.1445  136.0456 C   0  0  0  0  0  0  0  0  0  0  0  0
  135.3209  117.7479  136.9876 C   0  0  0  0  0  0  0  0  0  0  0  0
  135.5577  117.9970  138.2990 C   0  0  0  0  0  0  0  0  0  0  0  0
  134.9325  123.3105  139.9704 N   0  0  0  0  0  0  0  0  0  0  0  0
  136.0813  123.9874  139.4234 C   0  0  0  0  0  0  0  0  0  0  0  0
  135.7163  125.2280  138.6720 C   0  0  0  0  0  0  0  0  0  0  0  0
  134.4047  125.2242  137.9858 C   0  0  0  0  0  0  0  0  0  0  0  0
  133.9349  126.5642  137.5959 C   0  0  0  0  0  0  0  0  0  0  0  0
  134.6714  127.6768  137.4443 N   0  0  0  0  0  0  0  0  0  0  0  0
  133.8484  128.6962  137.0750 C   0  0  0  0  0  0  0  0  0  0  0  0
  134.2780  130.0595  136.8079 C   0  0  0  0  0  0  0  0  0  0  0  0
  133.4229  130.9628  136.2174 C   0  0  0  0  0  0  0  0  0  0  0  0
  133.7894  132.2771  135.9334 C   0  0  0  0  0  0  0  0  0  0  0  0
  135.0568  132.7057  136.2495 C   0  0  0  0  0  0  0  0  0  0  0  0
  135.9285  131.8166  136.8406 C   0  0  0  0  0  0  0  0  0  0  0  0
  135.5429  130.5108  137.1162 C   0  0  0  0  0  0  0  0  0  0  0  0
  132.6269  128.1456  137.0182 N   0  0  0  0  0  0  0  0  0  0  0  0
  132.7005  126.8841  137.3300 O   0  0  0  0  0  0  0  0  0  0  0  0
  133.3269  124.4011  138.6396 C   0  0  0  0  0  0  0  0  0  0  0  0
  133.7209  124.0893  140.0963 C   0  0  0  0  0  0  0  0  0  0  0  0
  1  2  2  0
  2  3  1  0
  4  3  1  6
  4  5  1  0
  5  6  1  0
  6  7  1  6
  7  8  2  0
  8  9  1  0
  9 10  2  0
 10 11  1  0
 11 12  2  0
  2 13  1  0
 13 14  1  0
 14 15  1  0
 15 16  1  0
 16 17  1  0
 17 18  2  0
 18 19  1  0
 19 20  1  0
 20 21  2  0
 21 22  1  0
 22 23  2  0
 23 24  1  0
 24 25  2  0
 19 26  2  0
 26 27  1  0
 16 28  1  0
 28 29  1  0
  6  4  1  0
 12  7  1  0
 29 13  1  0
 27 17  1  0
 25 20  1  0
M  END
>  <docking_score>  (1) 
-9.0459999999999994

$$$$

     RDKit          3D

 29 33  0  0  0  0  0  0  0  0999 V2000
  135.7777  121.0827  141.5726 O   0  0  0  0  0  0  0  0  0  0  0  0
  135.5920  121.0150  140.3222 C   0  0  0  0  0  0  0  0  0  0  0  0
  134.9718  122.1410  139.7210 N   0  0  0  0  0  0  0  0  0  0  0  0
  134.5361  123.3225  140.3393 C   0  0  2  0  0  0  0  0  0  0  0  0
  133.0437  123.6586  140.0756 C   0  0  0  0  0  0  0  0  0  0  0  0
  134.1996  124.6099  139.7958 C   0  0  2  0  0  0  0  0  0  0  0  0
  134.3496  125.1075  138.4369 C   0  0  0  0  0  0  0  0  0  0  0  0
  133.3611  125.4995  137.5760 C   0  0  0  0  0  0  0  0  0  0  0  0
  133.6887  125.9489  136.3170 C   0  0  0  0  0  0  0  0  0  0  0  0
  135.0087  126.0230  135.8760 C   0  0  0  0  0  0  0  0  0  0  0  0
  136.0012  125.6312  136.7358 C   0  0  0  0  0  0  0  0  0  0  0  0
  135.6793  125.1880  137.9759 C   0  0  0  0  0  0  0  0  0  0  0  0
  135.9821  119.8748  139.5682 N   0  0  0  0  0  0  0  0  0  0  0  0
  135.1792  118.6800  139.6380 C   0  0  0  0  0  0  0  0  0  0  0  0
  135.4133  117.7593  138.4829 C   0  0  0  0  0  0  0  0  0  0  0  0
  135.7708  118.3927  137.1937 C   0  0  0  0  0  0  0  0  0  0  0  0
  136.3519  117.4590  136.2144 C   0  0  0  0  0  0  0  0  0  0  0  0
  136.0206  117.3204  134.9205 N   0  0  0  0  0  0  0  0  0  0  0  0
  136.8002  116.3476  134.3737 C   0  0  0  0  0  0  0  0  0  0  0  0
  136.7430  115.9148  132.9867 C   0  0  0  0  0  0  0  0  0  0  0  0
  135.6294  115.2697  132.4973 C   0  0  0  0  0  0  0  0  0  0  0  0
  135.5292  114.8283  131.1792 C   0  0  0  0  0  0  0  0  0  0  0  0
  136.5799  115.0373  130.3177 C   0  0  0  0  0  0  0  0  0  0  0  0
  137.7043  115.6808  130.7882 C   0  0  0  0  0  0  0  0  0  0  0  0
  137.7836  116.1139  132.1058 C   0  0  0  0  0  0  0  0  0  0  0  0
  137.5839  115.9323  135.3797 N   0  0  0  0  0  0  0  0  0  0  0  0
  137.3022  116.6025  136.4593 O   0  0  0  0  0  0  0  0  0  0  0  0
  136.5409  119.6827  137.2902 C   0  0  0  0  0  0  0  0  0  0  0  0
  137.1393  119.8279  138.7027 C   0  0  0  0  0  0  0  0  0  0  0  0
  1  2  2  0
  2  3  1  0
  4  3  1  6
  4  5  1  0
  5  6  1  0
  6  7  1  6
  7  8  2  0
  8  9  1  0
  9 10  2  0
 10 11  1  0
 11 12  2  0
  2 13  1  0
 13 14  1  0
 14 15  1  0
 15 16  1  0
 16 17  1  0
 17 18  2  0
 18 19  1  0
 19 20  1  0
 20 21  2  0
 21 22  1  0
 22 23  2  0
 23 24  1  0
 24 25  2  0
 19 26  2  0
 26 27  1  0
 16 28  1  0
 28 29  1  0
  6  4  1  0
 12  7  1  0
 29 13  1  0
 27 17  1  0
 25 20  1  0
M  END
>  <docking_score>  (2) 
-8.5760000000000005

$$$$

     RDKit          3D

 29 33  0  0  0  0  0  0  0  0999 V2000
  132.5449  124.0924  140.2757 O   0  0  0  0  0  0  0  0  0  0  0  0
  133.7748  124.0145  140.5652 C   0  0  0  0  0  0  0  0  0  0  0  0
  134.3556  122.7224  140.4812 N   0  0  0  0  0  0  0  0  0  0  0  0
  133.7368  121.5168  140.1181 C   0  0  2  0  0  0  0  0  0  0  0  0
  133.8681  120.3952  141.1832 C   0  0  0  0  0  0  0  0  0  0  0  0
  134.2868  120.2480  139.7264 C   0  0  2  0  0  0  0  0  0  0  0  0
  135.6690  119.8835  139.4555 C   0  0  0  0  0  0  0  0  0  0  0  0
  136.2519  119.6608  138.2378 C   0  0  0  0  0  0  0  0  0  0  0  0
  137.5844  119.3230  138.1686 C   0  0  0  0  0  0  0  0  0  0  0  0
  138.3779  119.1972  139.3074 C   0  0  0  0  0  0  0  0  0  0  0  0
  137.7971  119.4195  140.5286 C   0  0  0  0  0  0  0  0  0  0  0  0
  136.4847  119.7519  140.5976 C   0  0  0  0  0  0  0  0  0  0  0  0
  134.5265  125.1572  140.9529 N   0  0  0  0  0  0  0  0  0  0  0  0
  133.8702  126.2139  141.6807 C   0  0  0  0  0  0  0  0  0  0  0  0
  134.8324  127.0930  142.4142 C   0  0  0  0  0  0  0  0  0  0  0  0
  136.0724  126.4513  142.9060 C   0  0  0  0  0  0  0  0  0  0  0  0
  137.1314  127.4074  143.2704 C   0  0  0  0  0  0  0  0  0  0  0  0
  137.3622  128.6160  142.7325 N   0  0  0  0  0  0  0  0  0  0  0  0
  138.4352  129.1728  143.3582 C   0  0  0  0  0  0  0  0  0  0  0  0
  138.9868  130.4845  143.0586 C   0  0  0  0  0  0  0  0  0  0  0  0
  138.1637  131.5813  142.9350 C   0  0  0  0  0  0  0  0  0  0  0  0
  138.6423  132.8568  142.6409 C   0  0  0  0  0  0  0  0  0  0  0  0
  139.9924  133.0445  142.4624 C   0  0  0  0  0  0  0  0  0  0  0  0
  140.8335  131.9590  142.5813 C   0  0  0  0  0  0  0  0  0  0  0  0
  140.3361  130.6959  142.8760 C   0  0  0  0  0  0  0  0  0  0  0  0
  138.8139  128.2596  144.2644 N   0  0  0  0  0  0  0  0  0  0  0  0
  138.0296  127.2233  144.1956 O   0  0  0  0  0  0  0  0  0  0  0  0
  136.5883  125.3049  142.0777 C   0  0  0  0  0  0  0  0  0  0  0  0
  135.9355  125.3352  140.6823 C   0  0  0  0  0  0  0  0  0  0  0  0
  1  2  2  0
  2  3  1  0
  4  3  1  1
  4  5  1  0
  5  6  1  0
  6  7  1  1
  7  8  2  0
  8  9  1  0
  9 10  2  0
 10 11  1  0
 11 12  2  0
  2 13  1  0
 13 14  1  0
 14 15  1  0
 15 16  1  0
 16 17  1  0
 17 18  2  0
 18 19  1  0
 19 20  1  0
 20 21  2  0
 21 22  1  0
 22 23  2  0
 23 24  1  0
 24 25  2  0
 19 26  2  0
 26 27  1  0
 16 28  1  0
 28 29  1  0
  6  4  1  0
 12  7  1  0
 29 13  1  0
 27 17  1  0
 25 20  1  0
M  END
>  <docking_score>  (3) 
-8.3550000000000004

$$$$
