
     RDKit          3D

 20 22  0  0  0  0  0  0  0  0999 V2000
  122.2168  121.1604  144.2447 O   0  0  0  0  0  0  0  0  0  0  0  0
  122.3162  122.2548  143.5929 C   0  0  0  0  0  0  0  0  0  0  0  0
  123.4313  123.0505  144.0414 N   0  0  0  0  0  0  0  0  0  0  0  0
  124.0594  124.1857  143.4172 C   0  0  0  0  0  0  0  0  0  0  0  0
  125.3400  124.2521  143.9550 C   0  0  0  0  0  0  0  0  0  0  0  0
  126.2407  125.2291  143.5840 C   0  0  0  0  0  0  0  0  0  0  0  0
  127.8566  125.2982  144.2743 Cl  0  0  0  0  0  0  0  0  0  0  0  0
  125.8212  126.1515  142.6476 C   0  0  0  0  0  0  0  0  0  0  0  0
  124.5428  126.0881  142.1084 C   0  0  0  0  0  0  0  0  0  0  0  0
  124.1207  126.9945  141.1837 F   0  0  0  0  0  0  0  0  0  0  0  0
  123.6467  125.1121  142.4807 C   0  0  0  0  0  0  0  0  0  0  0  0
  121.3072  122.4200  142.5888 N   0  0  0  0  0  0  0  0  0  0  0  0
  121.3422  123.1323  141.3685 C   0  0  1  0  0  0  0  0  0  0  0  0
  121.0479  122.4602  140.1418 C   0  0  0  0  0  0  0  0  0  0  0  0
  120.3579  123.2970  139.1527 C   0  0  0  0  0  0  0  0  0  0  0  0
  120.7711  124.9880  139.7334 S   0  0  2  0  0  0  0  0  0  0  0  0
  121.1805  124.5656  141.3871 C   0  0  2  0  0  0  0  0  0  0  0  0
  122.4129  125.3242  141.7403 C   0  0  0  0  0  0  0  0  0  0  0  0
  122.3794  126.4870  141.2594 O   0  0  0  0  0  0  0  0  0  0  0  0
  118.8316  125.8901  139.7433 Br  0  0  0  0  0  0  0  0  0  0  0  0
  1  2  2  0
  2  3  1  0
  3  4  1  0
  4  5  2  0
  5  6  1  0
  6  7  1  0
  6  8  2  0
  8  9  1  0
  9 10  1  0
  9 11  2  0
  2 12  1  0
 12 13  1  0
 13 14  1  6
 14 15  1  0
 15 16  1  0
 16 17  1  0
 17 18  1  6
 18 19  2  0
 16 20  1  1
 11  4  1  0
 18 11  1  0
 17 13  1  0
M  END
>  <docking_score>  (1) 
-7.5170000000000003

$$$$

     RDKit          3D

 20 22  0  0  0  0  0  0  0  0999 V2000
  120.3043  121.9465  142.3489 O   0  0  0  0  0  0  0  0  0  0  0  0
  120.9814  122.9963  142.0811 C   0  0  0  0  0  0  0  0  0  0  0  0
  120.3392  123.8119  141.0809 N   0  0  0  0  0  0  0  0  0  0  0  0
  120.6029  125.1749  140.6996 C   0  0  0  0  0  0  0  0  0  0  0  0
  119.4339  125.6328  140.1018 C   0  0  0  0  0  0  0  0  0  0  0  0
  119.3178  126.9155  139.6070 C   0  0  0  0  0  0  0  0  0  0  0  0
  117.8317  127.4781  138.8538 Cl  0  0  0  0  0  0  0  0  0  0  0  0
  120.4173  127.7402  139.7274 C   0  0  0  0  0  0  0  0  0  0  0  0
  121.5865  127.2861  140.3240 C   0  0  0  0  0  0  0  0  0  0  0  0
  122.6763  128.0936  140.4468 F   0  0  0  0  0  0  0  0  0  0  0  0
  121.6989  126.0058  140.8165 C   0  0  0  0  0  0  0  0  0  0  0  0
  122.1975  123.1035  142.8315 N   0  0  0  0  0  0  0  0  0  0  0  0
  122.9175  124.2478  143.2438 C   0  0  1  0  0  0  0  0  0  0  0  0
  123.2113  124.4448  144.6287 C   0  0  0  0  0  0  0  0  0  0  0  0
  124.5023  125.0971  144.8786 C   0  0  0  0  0  0  0  0  0  0  0  0
  124.8303  125.9164  143.2698 S   0  0  2  0  0  0  0  0  0  0  0  0
  123.7591  124.9292  142.2906 C   0  0  2  0  0  0  0  0  0  0  0  0
  123.0346  125.8497  141.3705 C   0  0  0  0  0  0  0  0  0  0  0  0
  123.7979  126.7572  140.9482 O   0  0  0  0  0  0  0  0  0  0  0  0
  126.8381  125.2778  142.9003 Br  0  0  0  0  0  0  0  0  0  0  0  0
  1  2  2  0
  2  3  1  0
  3  4  1  0
  4  5  2  0
  5  6  1  0
  6  7  1  0
  6  8  2  0
  8  9  1  0
  9 10  1  0
  9 11  2  0
  2 12  1  0
 12 13  1  0
 13 14  1  1
 14 15  1  0
 15 16  1  0
 16 17  1  0
 17 18  1  6
 18 19  2  0
 16 20  1  6
 11  4  1  0
 18 11  1  0
 17 13  1  0
M  END
>  <docking_score>  (2) 
-7.2919999999999998

$$$$
