
     RDKit          3D

 21 23  0  0  0  0  0  0  0  0999 V2000
  119.9274  121.4309  144.0624 O   0  0  0  0  0  0  0  0  0  0  0  0
  120.2031  122.3452  143.2337 C   0  0  0  0  0  0  0  0  0  0  0  0
  121.5585  122.7688  143.4744 N   0  0  0  0  0  0  0  0  0  0  0  0
  122.3471  123.8131  142.9179 C   0  0  0  0  0  0  0  0  0  0  0  0
  123.4109  124.0197  143.8034 C   0  0  0  0  0  0  0  0  0  0  0  0
  124.3591  124.9835  143.5314 C   0  0  0  0  0  0  0  0  0  0  0  0
  125.7002  125.2647  144.6194 Cl  0  0  0  0  0  0  0  0  0  0  0  0
  124.2131  125.7145  142.3761 C   0  0  0  0  0  0  0  0  0  0  0  0
  123.1633  125.5125  141.4996 C   0  0  0  0  0  0  0  0  0  0  0  0
  123.0625  126.2532  140.3809 F   0  0  0  0  0  0  0  0  0  0  0  0
  122.2199  124.5623  141.7586 C   0  0  0  0  0  0  0  0  0  0  0  0
  119.1571  122.6900  142.3356 N   0  0  0  0  0  0  0  0  0  0  0  0
  119.0933  123.2766  141.0421 C   0  0  0  0  0  0  0  0  0  0  0  0
  117.8542  122.9902  140.3040 C   0  0  0  0  0  0  0  0  0  0  0  0
  118.1887  122.5438  138.9198 C   0  0  0  0  0  0  0  0  0  0  0  0
  119.2717  124.4432  138.8003 S   0  0  2  0  0  0  0  0  0  0  0  0
  119.9265  124.0357  140.3663 C   0  0  0  0  0  0  0  0  0  0  0  0
  121.2416  124.5853  140.6543 C   0  0  0  0  0  0  0  0  0  0  0  0
  121.7030  125.2885  139.7034 O   0  0  0  0  0  0  0  0  0  0  0  0
  118.0704  125.5943  138.6037 C   0  0  0  0  0  0  0  0  0  0  0  0
  118.5371  127.1231  139.3936 Cl  0  0  0  0  0  0  0  0  0  0  0  0
  1  2  2  0
  2  3  1  0
  3  4  1  0
  4  5  2  0
  5  6  1  0
  6  7  1  0
  6  8  2  0
  8  9  1  0
  9 10  1  0
  9 11  2  0
  2 12  1  0
 12 13  1  0
 13 14  1  0
 14 15  1  0
 15 16  1  0
 16 17  1  0
 17 18  1  0
 18 19  2  0
 16 20  1  1
 20 21  1  0
 11  4  1  0
 18 11  1  0
 13 17  2  0
M  END
>  <docking_score>  (1) 
-7.2939999999999996

$$$$

     RDKit          3D

 21 23  0  0  0  0  0  0  0  0999 V2000
  120.5754  121.1275  144.1515 O   0  0  0  0  0  0  0  0  0  0  0  0
  121.1046  122.0363  143.4496 C   0  0  0  0  0  0  0  0  0  0  0  0
  120.1821  122.3793  142.3980 N   0  0  0  0  0  0  0  0  0  0  0  0
  120.2882  123.2509  141.2795 C   0  0  0  0  0  0  0  0  0  0  0  0
  119.2745  122.8774  140.3900 C   0  0  0  0  0  0  0  0  0  0  0  0
  119.1212  123.5493  139.1954 C   0  0  0  0  0  0  0  0  0  0  0  0
  117.8632  123.1053  138.0634 Cl  0  0  0  0  0  0  0  0  0  0  0  0
  119.9913  124.5794  138.9263 C   0  0  0  0  0  0  0  0  0  0  0  0
  120.9936  124.9505  139.8032 C   0  0  0  0  0  0  0  0  0  0  0  0
  121.8212  125.9657  139.4958 F   0  0  0  0  0  0  0  0  0  0  0  0
  121.1543  124.2929  140.9872 C   0  0  0  0  0  0  0  0  0  0  0  0
  122.3982  122.4526  143.8654 N   0  0  0  0  0  0  0  0  0  0  0  0
  123.1720  123.6358  143.7146 C   0  0  0  0  0  0  0  0  0  0  0  0
  124.2346  123.8005  144.7175 C   0  0  0  0  0  0  0  0  0  0  0  0
  124.1806  125.1814  145.2807 C   0  0  0  0  0  0  0  0  0  0  0  0
  124.3640  125.8091  143.1909 S   0  0  2  0  0  0  0  0  0  0  0  0
  123.1313  124.6219  142.8468 C   0  0  0  0  0  0  0  0  0  0  0  0
  122.2916  124.9109  141.6954 C   0  0  0  0  0  0  0  0  0  0  0  0
  122.6028  125.9968  141.1163 O   0  0  0  0  0  0  0  0  0  0  0  0
  125.9785  125.5566  142.8219 C   0  0  0  0  0  0  0  0  0  0  0  0
  126.6269  126.9313  141.8898 Cl  0  0  0  0  0  0  0  0  0  0  0  0
  1  2  2  0
  2  3  1  0
  3  4  1  0
  4  5  2  0
  5  6  1  0
  6  7  1  0
  6  8  2  0
  8  9  1  0
  9 10  1  0
  9 11  2  0
  2 12  1  0
 12 13  1  0
 13 14  1  0
 14 15  1  0
 15 16  1  0
 16 17  1  0
 17 18  1  0
 18 19  2  0
 16 20  1  6
 20 21  1  0
 11  4  1  0
 18 11  1  0
 13 17  2  0
M  END
>  <docking_score>  (2) 
-7.173

$$$$

     RDKit          3D

 21 23  0  0  0  0  0  0  0  0999 V2000
  122.4722  128.3074  140.2560 O   0  0  0  0  0  0  0  0  0  0  0  0
  121.9668  127.1750  140.5027 C   0  0  0  0  0  0  0  0  0  0  0  0
  122.6886  126.5976  141.6073 N   0  0  0  0  0  0  0  0  0  0  0  0
  122.6190  125.3228  142.2333 C   0  0  0  0  0  0  0  0  0  0  0  0
  123.8091  125.1708  142.9537 C   0  0  0  0  0  0  0  0  0  0  0  0
  124.0371  124.0185  143.6764 C   0  0  0  0  0  0  0  0  0  0  0  0
  125.5152  123.7999  144.5867 Cl  0  0  0  0  0  0  0  0  0  0  0  0
  123.0624  123.0489  143.6558 C   0  0  0  0  0  0  0  0  0  0  0  0
  121.8859  123.1963  142.9451 C   0  0  0  0  0  0  0  0  0  0  0  0
  120.9611  122.2192  142.9553 F   0  0  0  0  0  0  0  0  0  0  0  0
  121.6500  124.3316  142.2270 C   0  0  0  0  0  0  0  0  0  0  0  0
  120.8804  126.7971  139.6681 N   0  0  0  0  0  0  0  0  0  0  0  0
  119.7733  125.9140  139.7948 C   0  0  0  0  0  0  0  0  0  0  0  0
  118.6512  126.2110  138.8921 C   0  0  0  0  0  0  0  0  0  0  0  0
  117.3750  126.2150  139.6657 C   0  0  0  0  0  0  0  0  0  0  0  0
  117.9726  124.1906  140.2484 S   0  0  2  0  0  0  0  0  0  0  0  0
  119.5493  124.8709  140.5621 C   0  0  0  0  0  0  0  0  0  0  0  0
  120.3280  124.1935  141.5864 C   0  0  0  0  0  0  0  0  0  0  0  0
  119.7234  123.1970  142.0893 O   0  0  0  0  0  0  0  0  0  0  0  0
  117.6531  123.2576  138.8942 C   0  0  0  0  0  0  0  0  0  0  0  0
  118.8107  121.9062  138.7814 Cl  0  0  0  0  0  0  0  0  0  0  0  0
  1  2  2  0
  2  3  1  0
  3  4  1  0
  4  5  2  0
  5  6  1  0
  6  7  1  0
  6  8  2  0
  8  9  1  0
  9 10  1  0
  9 11  2  0
  2 12  1  0
 12 13  1  0
 13 14  1  0
 14 15  1  0
 15 16  1  0
 16 17  1  0
 17 18  1  0
 18 19  2  0
 16 20  1  6
 20 21  1  0
 11  4  1  0
 18 11  1  0
 13 17  2  0
M  END
>  <docking_score>  (3) 
-7.0499999999999998

$$$$
