
     RDKit          3D

 21 23  0  0  0  0  0  0  0  0999 V2000
  122.3460  128.2498  140.1606 O   0  0  0  0  0  0  0  0  0  0  0  0
  121.7466  127.2712  140.6710 C   0  0  0  0  0  0  0  0  0  0  0  0
  122.4118  126.7299  141.8094 N   0  0  0  0  0  0  0  0  0  0  0  0
  122.5169  125.4446  142.4467 C   0  0  0  0  0  0  0  0  0  0  0  0
  123.7924  125.3561  142.9605 C   0  0  0  0  0  0  0  0  0  0  0  0
  124.2061  124.2293  143.6360 C   0  0  0  0  0  0  0  0  0  0  0  0
  125.8497  124.2113  144.2536 Cl  0  0  0  0  0  0  0  0  0  0  0  0
  123.3394  123.1947  143.7940 C   0  0  0  0  0  0  0  0  0  0  0  0
  122.0629  123.2648  143.2883 C   0  0  0  0  0  0  0  0  0  0  0  0
  120.9438  121.9521  143.4816 Cl  0  0  0  0  0  0  0  0  0  0  0  0
  121.6495  124.3907  142.6135 C   0  0  0  0  0  0  0  0  0  0  0  0
  120.5281  126.9266  139.9853 N   0  0  0  0  0  0  0  0  0  0  0  0
  119.4477  125.9991  140.2409 C   0  0  1  0  0  0  0  0  0  0  0  0
  118.8651  125.3996  138.9519 C   0  0  0  0  0  0  0  0  0  0  0  0
  117.8439  124.3703  139.4614 C   0  0  0  0  0  0  0  0  0  0  0  0
  118.4492  122.6962  139.4879 S   0  0  0  0  0  0  0  0  0  0  0  0
  118.9886  122.1572  141.1354 C   0  0  0  0  0  0  0  0  0  0  0  0
  119.9614  122.7126  141.8965 C   0  0  0  0  0  0  0  0  0  0  0  0
  120.2453  124.1680  142.2010 C   0  0  2  0  0  0  0  0  0  0  0  0
  120.1063  124.8415  140.8820 C   0  0  0  0  0  0  0  0  0  0  0  0
  120.7736  124.2073  140.0500 O   0  0  0  0  0  0  0  0  0  0  0  0
  1  2  2  0
  2  3  1  0
  3  4  1  0
  4  5  2  0
  5  6  1  0
  6  7  1  0
  6  8  2  0
  8  9  1  0
  9 10  1  0
  9 11  2  0
  2 12  1  0
 12 13  1  0
 13 14  1  6
 14 15  1  0
 15 16  1  0
 16 17  1  0
 17 18  2  3
 18 19  1  0
 19 20  1  0
 20 21  2  0
 11  4  1  0
 19 11  1  6
 20 13  1  0
M  END
>  <docking_score>  (1) 
-7.3499999999999996

$$$$

     RDKit          3D

 21 23  0  0  0  0  0  0  0  0999 V2000
  142.5875  136.5648  138.3890 O   0  0  0  0  0  0  0  0  0  0  0  0
  142.0525  135.4553  138.6343 C   0  0  0  0  0  0  0  0  0  0  0  0
  141.5701  134.7888  137.4705 N   0  0  0  0  0  0  0  0  0  0  0  0
  140.5205  133.8559  137.1585 C   0  0  0  0  0  0  0  0  0  0  0  0
  140.0717  134.1674  135.8935 C   0  0  0  0  0  0  0  0  0  0  0  0
  139.0555  133.4465  135.3062 C   0  0  0  0  0  0  0  0  0  0  0  0
  138.5532  133.9196  133.6916 Cl  0  0  0  0  0  0  0  0  0  0  0  0
  138.4925  132.4156  135.9895 C   0  0  0  0  0  0  0  0  0  0  0  0
  138.9271  132.0901  137.2525 C   0  0  0  0  0  0  0  0  0  0  0  0
  138.2186  130.7763  138.1386 Cl  0  0  0  0  0  0  0  0  0  0  0  0
  139.9425  132.8103  137.8393 C   0  0  0  0  0  0  0  0  0  0  0  0
  142.0525  135.1181  140.0343 N   0  0  0  0  0  0  0  0  0  0  0  0
  141.6888  133.9422  140.7945 C   0  0  1  0  0  0  0  0  0  0  0  0
  141.0826  134.2868  142.1635 C   0  0  0  0  0  0  0  0  0  0  0  0
  140.6622  132.9200  142.7269 C   0  0  0  0  0  0  0  0  0  0  0  0
  138.9362  132.5423  142.5081 S   0  0  0  0  0  0  0  0  0  0  0  0
  138.6182  131.4422  141.0994 C   0  0  0  0  0  0  0  0  0  0  0  0
  138.9178  131.6757  139.7994 C   0  0  0  0  0  0  0  0  0  0  0  0
  140.1839  132.2244  139.1772 C   0  0  2  0  0  0  0  0  0  0  0  0
  140.5442  133.3704  140.0545 C   0  0  0  0  0  0  0  0  0  0  0  0
  139.5342  134.0751  140.2070 O   0  0  0  0  0  0  0  0  0  0  0  0
  1  2  2  0
  2  3  1  0
  3  4  1  0
  4  5  2  0
  5  6  1  0
  6  7  1  0
  6  8  2  0
  8  9  1  0
  9 10  1  0
  9 11  2  0
  2 12  1  0
 12 13  1  0
 13 14  1  1
 14 15  1  0
 15 16  1  0
 16 17  1  0
 17 18  2  3
 18 19  1  0
 19 20  1  0
 20 21  2  0
 11  4  1  0
 19 11  1  6
 20 13  1  0
M  END
>  <docking_score>  (2) 
-6.9900000000000002

$$$$
