
     RDKit          3D

 27 30  0  0  0  0  0  0  0  0999 V2000
  135.8317  124.9532  141.5883 O   0  0  0  0  0  0  0  0  0  0  0  0
  135.0082  124.2603  140.9463 C   0  0  0  0  0  0  0  0  0  0  0  0
  135.0995  123.1538  140.0781 N   0  0  0  0  0  0  0  0  0  0  0  0
  135.9358  122.0414  139.9123 C   0  0  0  0  0  0  0  0  0  0  0  0
  137.0758  121.8268  140.6806 C   0  0  0  0  0  0  0  0  0  0  0  0
  137.8969  120.7331  140.5170 C   0  0  0  0  0  0  0  0  0  0  0  0
  137.6010  119.7933  139.5572 C   0  0  0  0  0  0  0  0  0  0  0  0
  138.3581  118.6912  139.3356 F   0  0  0  0  0  0  0  0  0  0  0  0
  136.4761  119.9624  138.7666 C   0  0  0  0  0  0  0  0  0  0  0  0
  136.0940  118.7610  137.5368 Cl  0  0  0  0  0  0  0  0  0  0  0  0
  135.6703  121.0660  138.9505 C   0  0  0  0  0  0  0  0  0  0  0  0
  133.9322  123.6569  139.4019 C   0  0  2  0  0  0  0  0  0  0  0  0
  134.3405  124.6596  138.3901 C   0  0  0  0  0  0  0  0  0  0  0  0
  135.6313  125.0614  138.1471 C   0  0  0  0  0  0  0  0  0  0  0  0
  135.9462  126.0058  137.1827 C   0  0  0  0  0  0  0  0  0  0  0  0
  134.9283  126.5615  136.4412 C   0  0  0  0  0  0  0  0  0  0  0  0
  133.6402  126.1485  136.6966 C   0  0  0  0  0  0  0  0  0  0  0  0
  133.3810  125.2290  137.6423 N   0  0  0  0  0  0  0  0  0  0  0  0
  133.5300  124.1995  140.7330 C   0  0  2  0  0  0  0  0  0  0  0  0
  132.8462  125.5386  140.7299 C   0  0  1  0  0  0  0  0  0  0  0  0
  131.3735  125.3052  140.4629 C   0  0  0  0  0  0  0  0  0  0  0  0
  130.8889  124.3987  141.4813 N   0  0  0  0  0  0  0  0  0  0  0  0
  131.0109  125.0021  142.7143 N   0  0  0  0  0  0  0  0  0  0  0  0
  131.7882  126.1352  142.7631 N   0  0  0  0  0  0  0  0  0  0  0  0
  131.0830  127.3772  142.6843 C   0  0  0  0  0  0  0  0  0  0  0  0
  129.7706  127.2014  143.1321 F   0  0  0  0  0  0  0  0  0  0  0  0
  132.9842  126.0827  142.0808 N   0  0  0  0  0  0  0  0  0  0  0  0
  1  2  2  0
  2  3  1  0
  3  4  1  0
  4  5  2  0
  5  6  1  0
  6  7  2  0
  7  8  1  0
  7  9  1  0
  9 10  1  0
  9 11  2  0
  3 12  1  0
 12 13  1  6
 13 14  2  0
 14 15  1  0
 15 16  2  0
 16 17  1  0
 17 18  2  0
 12 19  1  0
 19 20  1  0
 20 21  1  1
 21 22  1  0
 22 23  1  0
 23 24  1  0
 24 25  1  0
 25 26  1  0
 24 27  1  0
 19  2  1  1
 11  4  1  0
 18 13  1  0
 27 20  1  0
M  END
>  <docking_score>  (1) 
-7.9969999999999999

$$$$

     RDKit          3D

 27 30  0  0  0  0  0  0  0  0999 V2000
  142.5324  131.4586  137.1858 O   0  0  0  0  0  0  0  0  0  0  0  0
  142.5416  132.6905  136.9562 C   0  0  0  0  0  0  0  0  0  0  0  0
  141.8580  133.8067  137.4786 N   0  0  0  0  0  0  0  0  0  0  0  0
  141.3046  134.1930  138.7070 C   0  0  0  0  0  0  0  0  0  0  0  0
  140.1990  133.5658  139.2729 C   0  0  0  0  0  0  0  0  0  0  0  0
  139.6560  133.9460  140.4803 C   0  0  0  0  0  0  0  0  0  0  0  0
  140.2117  134.9910  141.1812 C   0  0  0  0  0  0  0  0  0  0  0  0
  139.7362  135.4238  142.3743 F   0  0  0  0  0  0  0  0  0  0  0  0
  141.3141  135.6476  140.6591 C   0  0  0  0  0  0  0  0  0  0  0  0
  142.0282  136.9860  141.5538 Cl  0  0  0  0  0  0  0  0  0  0  0  0
  141.8387  135.2474  139.4485 C   0  0  0  0  0  0  0  0  0  0  0  0
  141.9648  134.4131  136.1771 C   0  0  2  0  0  0  0  0  0  0  0  0
  140.8442  133.9527  135.3236 C   0  0  0  0  0  0  0  0  0  0  0  0
  139.7773  133.2013  135.7521 C   0  0  0  0  0  0  0  0  0  0  0  0
  138.7592  132.8033  134.8999 C   0  0  0  0  0  0  0  0  0  0  0  0
  138.8192  133.1747  133.5759 C   0  0  0  0  0  0  0  0  0  0  0  0
  139.8947  133.9277  133.1619 C   0  0  0  0  0  0  0  0  0  0  0  0
  140.8600  134.2913  134.0240 N   0  0  0  0  0  0  0  0  0  0  0  0
  143.2406  133.6493  136.0471 C   0  0  2  0  0  0  0  0  0  0  0  0
  143.5536  133.0983  134.6836 C   0  0  1  0  0  0  0  0  0  0  0  0
  144.1402  134.2219  133.8542 C   0  0  0  0  0  0  0  0  0  0  0  0
  145.2953  134.7254  134.5654 N   0  0  0  0  0  0  0  0  0  0  0  0
  146.2373  133.7237  134.6579 N   0  0  0  0  0  0  0  0  0  0  0  0
  145.8082  132.4543  134.3495 N   0  0  0  0  0  0  0  0  0  0  0  0
  146.0734  132.0154  133.0142 C   0  0  0  0  0  0  0  0  0  0  0  0
  146.2820  130.6332  133.0068 F   0  0  0  0  0  0  0  0  0  0  0  0
  144.5882  132.0810  134.8701 N   0  0  0  0  0  0  0  0  0  0  0  0
  1  2  2  0
  2  3  1  0
  3  4  1  0
  4  5  2  0
  5  6  1  0
  6  7  2  0
  7  8  1  0
  7  9  1  0
  9 10  1  0
  9 11  2  0
  3 12  1  0
 12 13  1  6
 13 14  2  0
 14 15  1  0
 15 16  2  0
 16 17  1  0
 17 18  2  0
 12 19  1  0
 19 20  1  0
 20 21  1  6
 21 22  1  0
 22 23  1  0
 23 24  1  0
 24 25  1  0
 25 26  1  0
 24 27  1  0
 19  2  1  1
 11  4  1  0
 18 13  1  0
 27 20  1  0
M  END
>  <docking_score>  (2) 
-7.3360000000000003

$$$$

     RDKit          3D

 27 30  0  0  0  0  0  0  0  0999 V2000
  142.7952  135.4892  136.7274 O   0  0  0  0  0  0  0  0  0  0  0  0
  142.7251  134.2427  136.6193 C   0  0  0  0  0  0  0  0  0  0  0  0
  143.2909  133.2840  135.7551 N   0  0  0  0  0  0  0  0  0  0  0  0
  144.4764  133.1293  135.0235 C   0  0  0  0  0  0  0  0  0  0  0  0
  145.1704  134.1990  134.4668 C   0  0  0  0  0  0  0  0  0  0  0  0
  146.3354  134.0461  133.7481 C   0  0  0  0  0  0  0  0  0  0  0  0
  146.8604  132.7893  133.5559 C   0  0  0  0  0  0  0  0  0  0  0  0
  148.0011  132.5569  132.8621 F   0  0  0  0  0  0  0  0  0  0  0  0
  146.2057  131.6919  134.0909 C   0  0  0  0  0  0  0  0  0  0  0  0
  146.8750  130.0812  133.8469 Cl  0  0  0  0  0  0  0  0  0  0  0  0
  145.0410  131.8720  134.8064 C   0  0  0  0  0  0  0  0  0  0  0  0
  142.1005  132.4952  135.9388 C   0  0  2  0  0  0  0  0  0  0  0  0
  141.0587  132.9426  134.9846 C   0  0  0  0  0  0  0  0  0  0  0  0
  141.2342  133.8882  134.0042 C   0  0  0  0  0  0  0  0  0  0  0  0
  140.2157  134.2616  133.1414 C   0  0  0  0  0  0  0  0  0  0  0  0
  138.9831  133.6629  133.2718 C   0  0  0  0  0  0  0  0  0  0  0  0
  138.8231  132.7170  134.2592 C   0  0  0  0  0  0  0  0  0  0  0  0
  139.8397  132.3858  135.0739 N   0  0  0  0  0  0  0  0  0  0  0  0
  142.0413  133.1018  137.3014 C   0  0  2  0  0  0  0  0  0  0  0  0
  140.6713  133.4241  137.8304 C   0  0  1  0  0  0  0  0  0  0  0  0
  140.1077  132.1635  138.4533 C   0  0  0  0  0  0  0  0  0  0  0  0
  141.0435  131.7281  139.4675 N   0  0  0  0  0  0  0  0  0  0  0  0
  141.1231  132.6927  140.4486 N   0  0  0  0  0  0  0  0  0  0  0  0
  140.5743  133.9163  140.1451 N   0  0  0  0  0  0  0  0  0  0  0  0
  139.2414  134.1342  140.6161 C   0  0  0  0  0  0  0  0  0  0  0  0
  139.2387  135.1682  141.5567 F   0  0  0  0  0  0  0  0  0  0  0  0
  140.8540  134.4146  138.8913 N   0  0  0  0  0  0  0  0  0  0  0  0
  1  2  2  0
  2  3  1  0
  3  4  1  0
  4  5  2  0
  5  6  1  0
  6  7  2  0
  7  8  1  0
  7  9  1  0
  9 10  1  0
  9 11  2  0
  3 12  1  0
 12 13  1  6
 13 14  2  0
 14 15  1  0
 15 16  2  0
 16 17  1  0
 17 18  2  0
 12 19  1  0
 19 20  1  0
 20 21  1  1
 21 22  1  0
 22 23  1  0
 23 24  1  0
 24 25  1  0
 25 26  1  0
 24 27  1  0
 19  2  1  6
 11  4  1  0
 18 13  1  0
 27 20  1  0
M  END
>  <docking_score>  (3) 
-7.2640000000000002

$$$$
