
     RDKit          3D

 11 11  0  0  0  0  0  0  0  0999 V2000
  136.8907  124.1414  140.8620 O   0  0  0  0  0  0  0  0  0  0  0  0
  136.3585  123.0634  141.2312 C   0  0  0  0  0  0  0  0  0  0  0  0
  136.6072  121.9267  140.4097 N   0  0  0  0  0  0  0  0  0  0  0  0
  135.5608  121.4344  139.5846 C   0  0  0  0  0  0  0  0  0  0  0  0
  135.3349  120.1806  139.1523 C   0  0  0  0  0  0  0  0  0  0  0  0
  136.1516  119.0073  139.4513 C   0  0  0  0  0  0  0  0  0  0  0  0
  135.9046  117.8631  138.8399 C   0  0  0  0  0  0  0  0  0  0  0  0
  134.8760  117.8094  137.9308 F   0  0  0  0  0  0  0  0  0  0  0  0
  137.9386  121.3647  140.4946 C   0  0  0  0  0  0  0  0  0  0  0  0
  137.9640  119.9257  140.7757 C   0  0  0  0  0  0  0  0  0  0  0  0
  137.2396  118.9180  140.3623 N   0  0  0  0  0  0  0  0  0  0  0  0
  1  2  2  0
  2  3  1  0
  3  4  1  0
  4  5  2  0
  5  6  1  0
  6  7  2  3
  7  8  1  0
  3  9  1  0
  9 10  1  0
 10 11  2  0
 11  6  1  0
M  END
>  <docking_score>  (1) 
-4.4710000000000001

$$$$

     RDKit          3D

 11 11  0  0  0  0  0  0  0  0999 V2000
  119.4270  122.6673  142.2813 O   0  0  0  0  0  0  0  0  0  0  0  0
  119.9767  123.3122  143.2107 C   0  0  0  0  0  0  0  0  0  0  0  0
  121.3220  123.7205  142.9815 N   0  0  0  0  0  0  0  0  0  0  0  0
  122.3765  122.9619  143.5564 C   0  0  0  0  0  0  0  0  0  0  0  0
  123.6023  123.3617  143.9405 C   0  0  0  0  0  0  0  0  0  0  0  0
  124.1340  124.7185  143.8447 C   0  0  0  0  0  0  0  0  0  0  0  0
  125.4062  124.9453  144.1170 C   0  0  0  0  0  0  0  0  0  0  0  0
  126.2007  123.8871  144.4864 F   0  0  0  0  0  0  0  0  0  0  0  0
  121.4931  124.9015  142.1619 C   0  0  0  0  0  0  0  0  0  0  0  0
  122.3318  125.9376  142.7732 C   0  0  0  0  0  0  0  0  0  0  0  0
  123.4332  125.9001  143.4778 N   0  0  0  0  0  0  0  0  0  0  0  0
  1  2  2  0
  2  3  1  0
  3  4  1  0
  4  5  2  0
  5  6  1  0
  6  7  2  3
  7  8  1  0
  3  9  1  0
  9 10  1  0
 10 11  2  0
 11  6  1  0
M  END
>  <docking_score>  (2) 
-3.9860000000000002

$$$$

     RDKit          3D

 11 11  0  0  0  0  0  0  0  0999 V2000
  119.1084  120.7072  144.2773 O   0  0  0  0  0  0  0  0  0  0  0  0
  119.0815  121.1817  145.4418 C   0  0  0  0  0  0  0  0  0  0  0  0
  118.3644  120.4244  146.4120 N   0  0  0  0  0  0  0  0  0  0  0  0
  118.6548  120.6226  147.7884 C   0  0  0  0  0  0  0  0  0  0  0  0
  118.5508  119.7581  148.8140 C   0  0  0  0  0  0  0  0  0  0  0  0
  118.0981  118.3722  148.7285 C   0  0  0  0  0  0  0  0  0  0  0  0
  117.8983  117.6780  149.8340 C   0  0  0  0  0  0  0  0  0  0  0  0
  118.1245  118.2862  151.0450 F   0  0  0  0  0  0  0  0  0  0  0  0
  117.3804  119.4994  145.8906 C   0  0  0  0  0  0  0  0  0  0  0  0
  117.5296  118.1264  146.3836 C   0  0  0  0  0  0  0  0  0  0  0  0
  117.8261  117.6203  147.5528 N   0  0  0  0  0  0  0  0  0  0  0  0
  1  2  2  0
  2  3  1  0
  3  4  1  0
  4  5  2  0
  5  6  1  0
  6  7  2  3
  7  8  1  0
  3  9  1  0
  9 10  1  0
 10 11  2  0
 11  6  1  0
M  END
>  <docking_score>  (3) 
-2.6219999999999999

$$$$
