
     RDKit          3D

 28 30  0  0  0  0  0  0  0  0999 V2000
  141.7983  132.5555  137.6164 O   0  0  0  0  0  0  0  0  0  0  0  0
  141.2754  133.5867  138.2102 C   0  0  0  0  0  0  0  0  0  0  0  0
  140.7431  134.5001  137.3027 N   0  0  0  0  0  0  0  0  0  0  0  0
  140.7944  134.2654  135.8786 C   0  0  0  0  0  0  0  0  0  0  0  0
  139.5934  133.9003  135.3286 C   0  0  0  0  0  0  0  0  0  0  0  0
  139.4993  133.6441  133.9748 C   0  0  0  0  0  0  0  0  0  0  0  0
  137.9956  133.1731  133.2287 Cl  0  0  0  0  0  0  0  0  0  0  0  0
  140.6482  133.7724  133.2258 C   0  0  0  0  0  0  0  0  0  0  0  0
  141.8703  134.1401  133.7626 C   0  0  0  0  0  0  0  0  0  0  0  0
  142.9671  134.2496  132.9683 F   0  0  0  0  0  0  0  0  0  0  0  0
  141.9165  134.3858  135.1193 C   0  0  0  0  0  0  0  0  0  0  0  0
  141.2616  133.7101  139.5462 N   0  0  0  0  0  0  0  0  0  0  0  0
  141.8959  134.7830  140.1901 C   0  0  0  0  0  0  0  0  0  0  0  0
  140.9744  135.3717  141.2967 C   0  0  0  0  0  0  0  0  0  0  0  0
  141.7793  134.4610  142.2897 C   0  0  2  0  0  0  0  0  0  0  0  0
  143.1701  135.0772  141.9785 C   0  0  0  0  0  0  0  0  0  0  0  0
  142.9602  135.4624  140.4258 C   0  0  0  0  0  0  0  0  0  0  0  0
  141.5587  133.0455  141.8593 C   0  0  0  0  0  0  0  0  0  0  0  0
  140.7107  132.8620  140.5996 C   0  0  0  0  0  0  0  0  0  0  0  0
  139.6941  132.1749  140.3910 C   0  0  0  0  0  0  0  0  0  0  0  0
  139.1825  131.3283  141.4997 C   0  0  0  0  0  0  0  0  0  0  0  0
  138.2840  132.3547  142.7080 S   0  0  0  0  0  0  0  0  0  0  0  0
  137.2549  133.4962  141.7605 C   0  0  0  0  0  0  0  0  0  0  0  0
  137.7318  134.7884  141.7943 F   0  0  0  0  0  0  0  0  0  0  0  0
  138.9086  132.1443  139.1536 C   0  0  0  0  0  0  0  0  0  0  0  0
  137.9980  130.9402  139.0709 C   0  0  0  0  0  0  0  0  0  0  0  0
  137.7836  130.6115  137.6261 C   0  0  0  0  0  0  0  0  0  0  0  0
  138.8173  131.0963  136.8319 F   0  0  0  0  0  0  0  0  0  0  0  0
  1  2  2  0
  2  3  1  0
  3  4  1  0
  4  5  2  0
  5  6  1  0
  6  7  1  0
  6  8  2  0
  8  9  1  0
  9 10  1  0
  9 11  2  0
  2 12  1  0
 12 13  1  0
 13 14  1  0
 14 15  1  0
 15 16  1  6
 16 17  1  0
 15 18  1  0
 18 19  1  0
 19 20  2  3
 20 21  1  0
 21 22  1  0
 22 23  1  0
 23 24  1  0
 20 25  1  0
 25 26  1  0
 26 27  1  0
 27 28  1  0
 11  4  1  0
 19 12  1  0
 13 17  2  0
M  END
>  <docking_score>  (1) 
-6.758

$$$$

     RDKit          3D

 28 30  0  0  0  0  0  0  0  0999 V2000
  141.9475  132.8973  137.6556 O   0  0  0  0  0  0  0  0  0  0  0  0
  141.3630  133.8836  138.2680 C   0  0  0  0  0  0  0  0  0  0  0  0
  140.6327  134.6848  137.3929 N   0  0  0  0  0  0  0  0  0  0  0  0
  140.5690  134.3946  135.9796 C   0  0  0  0  0  0  0  0  0  0  0  0
  141.7802  134.4561  135.3411 C   0  0  0  0  0  0  0  0  0  0  0  0
  141.8642  134.2014  133.9864 C   0  0  0  0  0  0  0  0  0  0  0  0
  143.3804  134.2708  133.1284 Cl  0  0  0  0  0  0  0  0  0  0  0  0
  140.6952  133.8897  133.3280 C   0  0  0  0  0  0  0  0  0  0  0  0
  139.4626  133.8224  133.9550 C   0  0  0  0  0  0  0  0  0  0  0  0
  138.3459  133.5083  133.2478 F   0  0  0  0  0  0  0  0  0  0  0  0
  139.4269  134.0847  135.3089 C   0  0  0  0  0  0  0  0  0  0  0  0
  141.4687  134.0640  139.5934 N   0  0  0  0  0  0  0  0  0  0  0  0
  141.0222  133.0941  140.5033 C   0  0  0  0  0  0  0  0  0  0  0  0
  142.0755  132.8811  141.6281 C   0  0  0  0  0  0  0  0  0  0  0  0
  141.2127  133.8881  142.4677 C   0  0  2  0  0  0  0  0  0  0  0  0
  139.9022  133.0569  142.4146 C   0  0  0  0  0  0  0  0  0  0  0  0
  140.0740  132.3628  140.9682 C   0  0  0  0  0  0  0  0  0  0  0  0
  141.2160  135.1877  141.7273 C   0  0  0  0  0  0  0  0  0  0  0  0
  141.9590  135.1851  140.3903 C   0  0  0  0  0  0  0  0  0  0  0  0
  142.8605  135.9243  139.9541 C   0  0  0  0  0  0  0  0  0  0  0  0
  143.3151  137.0515  140.8086 C   0  0  0  0  0  0  0  0  0  0  0  0
  145.1322  137.0401  140.9456 S   0  0  0  0  0  0  0  0  0  0  0  0
  145.7212  138.5787  140.2069 C   0  0  0  0  0  0  0  0  0  0  0  0
  146.2780  138.3865  138.9614 F   0  0  0  0  0  0  0  0  0  0  0  0
  143.5634  135.7712  138.6768 C   0  0  0  0  0  0  0  0  0  0  0  0
  143.3367  136.9387  137.7432 C   0  0  0  0  0  0  0  0  0  0  0  0
  144.3764  136.8887  136.6672 C   0  0  0  0  0  0  0  0  0  0  0  0
  145.4956  136.1679  137.0699 F   0  0  0  0  0  0  0  0  0  0  0  0
  1  2  2  0
  2  3  1  0
  3  4  1  0
  4  5  2  0
  5  6  1  0
  6  7  1  0
  6  8  2  0
  8  9  1  0
  9 10  1  0
  9 11  2  0
  2 12  1  0
 12 13  1  0
 13 14  1  0
 14 15  1  0
 15 16  1  6
 16 17  1  0
 15 18  1  0
 18 19  1  0
 19 20  2  3
 20 21  1  0
 21 22  1  0
 22 23  1  0
 23 24  1  0
 20 25  1  0
 25 26  1  0
 26 27  1  0
 27 28  1  0
 11  4  1  0
 19 12  1  0
 13 17  2  0
M  END
>  <docking_score>  (2) 
-6.532

$$$$

     RDKit          3D

 28 30  0  0  0  0  0  0  0  0999 V2000
  136.4452  130.8844  136.7625 O   0  0  0  0  0  0  0  0  0  0  0  0
  136.7143  132.1059  136.4090 C   0  0  0  0  0  0  0  0  0  0  0  0
  135.6089  132.9442  136.5368 N   0  0  0  0  0  0  0  0  0  0  0  0
  134.3398  132.4505  137.0181 C   0  0  0  0  0  0  0  0  0  0  0  0
  133.5199  131.9631  136.0339 C   0  0  0  0  0  0  0  0  0  0  0  0
  132.2744  131.4599  136.3542 C   0  0  0  0  0  0  0  0  0  0  0  0
  131.1939  130.8322  135.1384 Cl  0  0  0  0  0  0  0  0  0  0  0  0
  131.9096  131.4735  137.6824 C   0  0  0  0  0  0  0  0  0  0  0  0
  132.7233  131.9612  138.6908 C   0  0  0  0  0  0  0  0  0  0  0  0
  132.3040  131.9454  139.9830 F   0  0  0  0  0  0  0  0  0  0  0  0
  133.9584  132.4541  138.3237 C   0  0  0  0  0  0  0  0  0  0  0  0
  137.9334  132.4748  135.9869 N   0  0  0  0  0  0  0  0  0  0  0  0
  138.1174  133.1316  134.7611 C   0  0  0  0  0  0  0  0  0  0  0  0
  139.0962  134.3289  134.9297 C   0  0  0  0  0  0  0  0  0  0  0  0
  140.2077  133.3417  134.4267 C   0  0  2  0  0  0  0  0  0  0  0  0
  139.5360  133.0281  133.0624 C   0  0  0  0  0  0  0  0  0  0  0  0
  137.9835  133.1537  133.4837 C   0  0  0  0  0  0  0  0  0  0  0  0
  140.2766  132.2221  135.4162 C   0  0  0  0  0  0  0  0  0  0  0  0
  139.2634  132.2874  136.5602 C   0  0  0  0  0  0  0  0  0  0  0  0
  139.4187  132.2384  137.7941 C   0  0  0  0  0  0  0  0  0  0  0  0
  140.7949  132.0416  138.3185 C   0  0  0  0  0  0  0  0  0  0  0  0
  141.3732  133.5595  139.1444 S   0  0  0  0  0  0  0  0  0  0  0  0
  141.7563  134.7493  137.8414 C   0  0  0  0  0  0  0  0  0  0  0  0
  142.5217  134.2015  136.8354 F   0  0  0  0  0  0  0  0  0  0  0  0
  138.3700  132.3988  138.8058 C   0  0  0  0  0  0  0  0  0  0  0  0
  138.3813  131.2935  139.8374 C   0  0  0  0  0  0  0  0  0  0  0  0
  136.9922  131.1364  140.3730 C   0  0  0  0  0  0  0  0  0  0  0  0
  136.2983  130.1303  139.7094 F   0  0  0  0  0  0  0  0  0  0  0  0
  1  2  2  0
  2  3  1  0
  3  4  1  0
  4  5  2  0
  5  6  1  0
  6  7  1  0
  6  8  2  0
  8  9  1  0
  9 10  1  0
  9 11  2  0
  2 12  1  0
 12 13  1  0
 13 14  1  0
 14 15  1  0
 15 16  1  6
 16 17  1  0
 15 18  1  0
 18 19  1  0
 19 20  2  3
 20 21  1  0
 21 22  1  0
 22 23  1  0
 23 24  1  0
 20 25  1  0
 25 26  1  0
 26 27  1  0
 27 28  1  0
 11  4  1  0
 19 12  1  0
 13 17  2  0
M  END
>  <docking_score>  (3) 
-6.2140000000000004

$$$$
