
     RDKit          3D

 11 11  0  0  0  0  0  0  0  0999 V2000
  136.2784  123.6374  140.3453 O   0  0  0  0  0  0  0  0  0  0  0  0
  136.6609  122.7357  141.1273 C   0  0  0  0  0  0  0  0  0  0  0  0
  136.7086  121.3603  140.7772 N   0  0  0  0  0  0  0  0  0  0  0  0
  137.9449  120.7973  140.3107 C   0  0  0  0  0  0  0  0  0  0  0  0
  138.0868  119.7600  139.4610 C   0  0  0  0  0  0  0  0  0  0  0  0
  137.0093  118.9713  138.8202 C   0  0  0  0  0  0  0  0  0  0  0  0
  137.2910  117.8118  138.2993 C   0  0  0  0  0  0  0  0  0  0  0  0
  138.4626  117.2049  138.2578 F   0  0  0  0  0  0  0  0  0  0  0  0
  135.4388  120.6851  140.9501 C   0  0  0  0  0  0  0  0  0  0  0  0
  135.0270  120.1382  139.6312 C   0  0  0  0  0  0  0  0  0  0  0  0
  135.6591  119.4352  138.7491 N   0  0  0  0  0  0  0  0  0  0  0  0
  1  2  2  0
  2  3  1  0
  3  4  1  0
  4  5  2  0
  5  6  1  0
  6  7  2  3
  7  8  1  0
  3  9  1  0
  9 10  1  0
 10 11  2  0
 11  6  1  0
M  END
>  <docking_score>  (1) 
-4.5380000000000003

$$$$

     RDKit          3D

 11 11  0  0  0  0  0  0  0  0999 V2000
  124.8655  127.2157  141.0405 O   0  0  0  0  0  0  0  0  0  0  0  0
  123.7792  126.6427  141.2905 C   0  0  0  0  0  0  0  0  0  0  0  0
  122.6848  126.6045  140.3865 N   0  0  0  0  0  0  0  0  0  0  0  0
  121.7456  127.6911  140.3752 C   0  0  0  0  0  0  0  0  0  0  0  0
  120.4405  127.6233  140.0435 C   0  0  0  0  0  0  0  0  0  0  0  0
  119.6839  126.4229  139.6187 C   0  0  0  0  0  0  0  0  0  0  0  0
  118.5371  126.5703  139.0203 C   0  0  0  0  0  0  0  0  0  0  0  0
  117.9178  127.6972  138.7212 F   0  0  0  0  0  0  0  0  0  0  0  0
  122.6706  125.4145  139.5607 C   0  0  0  0  0  0  0  0  0  0  0  0
  121.3949  124.6957  139.8142 C   0  0  0  0  0  0  0  0  0  0  0  0
  120.1657  125.0956  139.8411 N   0  0  0  0  0  0  0  0  0  0  0  0
  1  2  2  0
  2  3  1  0
  3  4  1  0
  4  5  2  0
  5  6  1  0
  6  7  2  3
  7  8  1  0
  3  9  1  0
  9 10  1  0
 10 11  2  0
 11  6  1  0
M  END
>  <docking_score>  (2) 
-4.3869999999999996

$$$$
