
     RDKit          3D

 24 26  0  0  0  0  0  0  0  0999 V2000
  121.9085  121.8030  143.9078 O   0  0  0  0  0  0  0  0  0  0  0  0
  122.3521  122.8903  143.4728 C   0  0  0  0  0  0  0  0  0  0  0  0
  123.6155  123.3591  143.9915 N   0  0  0  0  0  0  0  0  0  0  0  0
  124.4977  124.3444  143.4647 C   0  0  0  0  0  0  0  0  0  0  0  0
  125.7717  124.3339  143.9568 C   0  0  0  0  0  0  0  0  0  0  0  0
  126.7506  125.2226  143.5505 C   0  0  0  0  0  0  0  0  0  0  0  0
  128.3779  125.1940  144.1925 Cl  0  0  0  0  0  0  0  0  0  0  0  0
  126.3853  126.1514  142.5994 C   0  0  0  0  0  0  0  0  0  0  0  0
  125.0950  126.1876  142.0785 C   0  0  0  0  0  0  0  0  0  0  0  0
  124.7774  127.1167  141.1452 F   0  0  0  0  0  0  0  0  0  0  0  0
  124.1397  125.2875  142.5038 C   0  0  0  0  0  0  0  0  0  0  0  0
  121.5308  123.5239  142.5081 N   0  0  0  0  0  0  0  0  0  0  0  0
  120.6512  122.5844  141.8004 C   0  0  0  0  0  0  0  0  0  0  0  0
  121.2688  122.4206  140.4043 C   0  0  0  0  0  0  0  0  0  0  0  0
  121.5199  123.7505  139.7605 C   0  0  0  0  0  0  0  0  0  0  0  0
  120.5556  124.9468  140.5762 S   0  0  2  0  0  0  0  0  0  0  0  0
  121.5218  124.9381  142.2150 C   0  0  2  0  0  0  0  0  0  0  0  0
  122.8440  125.4791  141.8458 C   0  0  0  0  0  0  0  0  0  0  0  0
  122.8881  126.2079  140.8292 O   0  0  0  0  0  0  0  0  0  0  0  0
  118.7811  124.2681  141.0085 Cl  0  0  0  0  0  0  0  0  0  0  0  0
  120.5089  126.6272  139.9645 C   0  0  0  0  0  0  0  0  0  0  0  0
  119.1338  127.1924  140.2567 C   0  0  0  0  0  0  0  0  0  0  0  0
  118.2338  127.2161  138.6729 S   0  0  0  0  0  0  0  0  0  0  0  0
  118.0741  125.6505  138.0181 F   0  0  0  0  0  0  0  0  0  0  0  0
  1  2  2  0
  2  3  1  0
  3  4  1  0
  4  5  2  0
  5  6  1  0
  6  7  1  0
  6  8  2  0
  8  9  1  0
  9 10  1  0
  9 11  2  0
  2 12  1  0
 12 13  1  0
 13 14  1  0
 14 15  1  0
 15 16  1  0
 16 17  1  0
 17 18  1  6
 18 19  2  0
 16 20  1  1
 16 21  1  0
 21 22  1  0
 22 23  1  0
 23 24  1  0
 11  4  1  0
 18 11  1  0
 17 12  1  0
M  END
>  <docking_score>  (1) 
-7.4269999999999996

$$$$

     RDKit          3D

 24 26  0  0  0  0  0  0  0  0999 V2000
  140.7028  112.1173  165.4471 O   0  0  0  0  0  0  0  0  0  0  0  0
  140.9650  113.0652  164.6719 C   0  0  0  0  0  0  0  0  0  0  0  0
  142.3077  113.5962  164.6859 N   0  0  0  0  0  0  0  0  0  0  0  0
  142.9665  114.4098  163.7213 C   0  0  0  0  0  0  0  0  0  0  0  0
  144.3279  114.4677  163.8142 C   0  0  0  0  0  0  0  0  0  0  0  0
  145.1173  115.2109  162.9554 C   0  0  0  0  0  0  0  0  0  0  0  0
  146.8607  115.2729  163.0900 Cl  0  0  0  0  0  0  0  0  0  0  0  0
  144.4620  115.9157  161.9682 C   0  0  0  0  0  0  0  0  0  0  0  0
  143.0759  115.8771  161.8475 C   0  0  0  0  0  0  0  0  0  0  0  0
  142.4713  116.5845  160.8631 F   0  0  0  0  0  0  0  0  0  0  0  0
  142.3149  115.1261  162.7197 C   0  0  0  0  0  0  0  0  0  0  0  0
  139.8793  113.4942  163.8694 N   0  0  0  0  0  0  0  0  0  0  0  0
  138.8654  112.4499  163.6735 C   0  0  0  0  0  0  0  0  0  0  0  0
  139.0593  111.9588  162.2318 C   0  0  0  0  0  0  0  0  0  0  0  0
  139.0688  113.1028  161.2635 C   0  0  0  0  0  0  0  0  0  0  0  0
  138.3408  114.4817  162.0349 S   0  0  2  0  0  0  0  0  0  0  0  0
  139.7383  114.8070  163.2840 C   0  0  2  0  0  0  0  0  0  0  0  0
  140.8787  115.2085  162.4382 C   0  0  0  0  0  0  0  0  0  0  0  0
  140.6030  115.6905  161.3164 O   0  0  0  0  0  0  0  0  0  0  0  0
  136.7904  113.9750  163.1006 Cl  0  0  0  0  0  0  0  0  0  0  0  0
  138.0628  115.9840  161.1043 C   0  0  0  0  0  0  0  0  0  0  0  0
  136.5741  116.2662  161.1070 C   0  0  0  0  0  0  0  0  0  0  0  0
  136.3476  117.8569  161.9656 S   0  0  0  0  0  0  0  0  0  0  0  0
  137.6675  118.2145  162.9832 F   0  0  0  0  0  0  0  0  0  0  0  0
  1  2  2  0
  2  3  1  0
  3  4  1  0
  4  5  2  0
  5  6  1  0
  6  7  1  0
  6  8  2  0
  8  9  1  0
  9 10  1  0
  9 11  2  0
  2 12  1  0
 12 13  1  0
 13 14  1  0
 14 15  1  0
 15 16  1  0
 16 17  1  0
 17 18  1  6
 18 19  2  0
 16 20  1  1
 16 21  1  0
 21 22  1  0
 22 23  1  0
 23 24  1  0
 11  4  1  0
 18 11  1  0
 17 12  1  0
M  END
>  <docking_score>  (2) 
-4.944

$$$$
