
     RDKit          3D

 20 22  0  0  0  0  0  0  0  0999 V2000
  119.9848  121.8365  143.2498 O   0  0  0  0  0  0  0  0  0  0  0  0
  120.7592  122.7243  142.7527 C   0  0  0  0  0  0  0  0  0  0  0  0
  120.1293  123.5096  141.7336 N   0  0  0  0  0  0  0  0  0  0  0  0
  120.3205  124.8209  141.2148 C   0  0  0  0  0  0  0  0  0  0  0  0
  119.3410  125.0026  140.2619 C   0  0  0  0  0  0  0  0  0  0  0  0
  119.2621  126.2065  139.5634 C   0  0  0  0  0  0  0  0  0  0  0  0
  118.0135  126.4428  138.3462 Cl  0  0  0  0  0  0  0  0  0  0  0  0
  120.1898  127.1777  139.8683 C   0  0  0  0  0  0  0  0  0  0  0  0
  121.1716  127.0009  140.8206 C   0  0  0  0  0  0  0  0  0  0  0  0
  122.0860  127.9561  141.1222 F   0  0  0  0  0  0  0  0  0  0  0  0
  121.2475  125.7991  141.5154 C   0  0  0  0  0  0  0  0  0  0  0  0
  122.0646  122.7475  143.3058 N   0  0  0  0  0  0  0  0  0  0  0  0
  123.0854  123.7274  143.6324 C   0  0  0  0  0  0  0  0  0  0  0  0
  124.1448  123.2307  144.4928 C   0  0  0  0  0  0  0  0  0  0  0  0
  125.4025  123.9995  144.3366 C   0  0  0  0  0  0  0  0  0  0  0  0
  124.6242  125.6791  143.9633 S   0  0  1  0  0  0  0  0  0  0  0  0
  123.1534  124.9761  143.2552 C   0  0  0  0  0  0  0  0  0  0  0  0
  122.3526  125.9079  142.4261 C   0  0  0  0  0  0  0  0  0  0  0  0
  122.7622  127.0872  142.5730 O   0  0  0  0  0  0  0  0  0  0  0  0
  123.9406  125.8902  145.9813 F   0  0  0  0  0  0  0  0  0  0  0  0
  1  2  2  0
  2  3  1  0
  3  4  1  0
  4  5  2  0
  5  6  1  0
  6  7  1  0
  6  8  2  0
  8  9  1  0
  9 10  1  0
  9 11  2  0
  2 12  1  0
 12 13  1  0
 13 14  1  0
 14 15  1  0
 15 16  1  0
 16 17  1  0
 17 18  1  0
 18 19  2  0
 16 20  1  1
 11  4  1  0
 18 11  1  0
 13 17  2  0
M  END
>  <docking_score>  (1) 
-7.5629999999999997

$$$$

     RDKit          3D

 20 22  0  0  0  0  0  0  0  0999 V2000
  141.7384  131.9974  138.9059 O   0  0  0  0  0  0  0  0  0  0  0  0
  141.6062  132.0845  137.6370 C   0  0  0  0  0  0  0  0  0  0  0  0
  140.2370  132.1298  137.2184 N   0  0  0  0  0  0  0  0  0  0  0  0
  139.5495  132.6553  136.0887 C   0  0  0  0  0  0  0  0  0  0  0  0
  138.2102  132.4146  136.3090 C   0  0  0  0  0  0  0  0  0  0  0  0
  137.2647  132.8181  135.3673 C   0  0  0  0  0  0  0  0  0  0  0  0
  135.5540  132.5130  135.6444 Cl  0  0  0  0  0  0  0  0  0  0  0  0
  137.7282  133.4529  134.2363 C   0  0  0  0  0  0  0  0  0  0  0  0
  139.0670  133.6960  134.0111 C   0  0  0  0  0  0  0  0  0  0  0  0
  139.5253  134.3208  132.8980 F   0  0  0  0  0  0  0  0  0  0  0  0
  140.0071  133.2923  134.9522 C   0  0  0  0  0  0  0  0  0  0  0  0
  142.8267  132.1176  136.9159 N   0  0  0  0  0  0  0  0  0  0  0  0
  143.3630  132.7478  135.7226 C   0  0  0  0  0  0  0  0  0  0  0  0
  144.8093  132.6852  135.6056 C   0  0  0  0  0  0  0  0  0  0  0  0
  145.2642  132.7849  134.1984 C   0  0  0  0  0  0  0  0  0  0  0  0
  143.8939  133.9239  133.5729 S   0  0  1  0  0  0  0  0  0  0  0  0
  142.7088  133.3559  134.7694 C   0  0  0  0  0  0  0  0  0  0  0  0
  141.2971  133.6752  134.4504 C   0  0  0  0  0  0  0  0  0  0  0  0
  141.2376  134.4898  133.4949 O   0  0  0  0  0  0  0  0  0  0  0  0
  144.6816  135.5884  134.6650 F   0  0  0  0  0  0  0  0  0  0  0  0
  1  2  2  0
  2  3  1  0
  3  4  1  0
  4  5  2  0
  5  6  1  0
  6  7  1  0
  6  8  2  0
  8  9  1  0
  9 10  1  0
  9 11  2  0
  2 12  1  0
 12 13  1  0
 13 14  1  0
 14 15  1  0
 15 16  1  0
 16 17  1  0
 17 18  1  0
 18 19  2  0
 16 20  1  1
 11  4  1  0
 18 11  1  0
 13 17  2  0
M  END
>  <docking_score>  (2) 
-7.5540000000000003

$$$$

     RDKit          3D

 20 22  0  0  0  0  0  0  0  0999 V2000
  118.9134  121.6582  144.2321 O   0  0  0  0  0  0  0  0  0  0  0  0
  119.2785  122.5856  143.4312 C   0  0  0  0  0  0  0  0  0  0  0  0
  120.3549  123.3785  143.9458 N   0  0  0  0  0  0  0  0  0  0  0  0
  121.3913  124.1622  143.3654 C   0  0  0  0  0  0  0  0  0  0  0  0
  122.1448  124.6399  144.4162 C   0  0  0  0  0  0  0  0  0  0  0  0
  123.2505  125.4522  144.1691 C   0  0  0  0  0  0  0  0  0  0  0  0
  124.2153  126.0644  145.5074 Cl  0  0  0  0  0  0  0  0  0  0  0  0
  123.5414  125.7435  142.8547 C   0  0  0  0  0  0  0  0  0  0  0  0
  122.7908  125.2681  141.8000 C   0  0  0  0  0  0  0  0  0  0  0  0
  123.0757  125.5539  140.5051 F   0  0  0  0  0  0  0  0  0  0  0  0
  121.6888  124.4583  142.0499 C   0  0  0  0  0  0  0  0  0  0  0  0
  118.5517  122.6369  142.2147 N   0  0  0  0  0  0  0  0  0  0  0  0
  118.7981  122.9490  140.8180 C   0  0  0  0  0  0  0  0  0  0  0  0
  117.7443  122.5286  139.9112 C   0  0  0  0  0  0  0  0  0  0  0  0
  117.7229  123.3302  138.6645 C   0  0  0  0  0  0  0  0  0  0  0  0
  119.5798  123.6509  138.5415 S   0  0  1  0  0  0  0  0  0  0  0  0
  119.8375  123.5439  140.2967 C   0  0  0  0  0  0  0  0  0  0  0  0
  121.1143  124.1237  140.7769 C   0  0  0  0  0  0  0  0  0  0  0  0
  121.8712  124.3799  139.8066 O   0  0  0  0  0  0  0  0  0  0  0  0
  119.9708  121.6081  138.0336 F   0  0  0  0  0  0  0  0  0  0  0  0
  1  2  2  0
  2  3  1  0
  3  4  1  0
  4  5  2  0
  5  6  1  0
  6  7  1  0
  6  8  2  0
  8  9  1  0
  9 10  1  0
  9 11  2  0
  2 12  1  0
 12 13  1  0
 13 14  1  0
 14 15  1  0
 15 16  1  0
 16 17  1  0
 17 18  1  0
 18 19  2  0
 16 20  1  6
 11  4  1  0
 18 11  1  0
 13 17  2  0
M  END
>  <docking_score>  (3) 
-7.0389999999999997

$$$$
