
     RDKit          3D

 20 22  0  0  0  0  0  0  0  0999 V2000
  118.7174  121.9342  143.1344 O   0  0  0  0  0  0  0  0  0  0  0  0
  119.2939  122.8327  142.4582 C   0  0  0  0  0  0  0  0  0  0  0  0
  120.5031  123.3341  143.0612 N   0  0  0  0  0  0  0  0  0  0  0  0
  121.2630  124.5491  142.9162 C   0  0  0  0  0  0  0  0  0  0  0  0
  122.0088  124.6752  144.0543 C   0  0  0  0  0  0  0  0  0  0  0  0
  122.8389  125.7682  144.1769 C   0  0  0  0  0  0  0  0  0  0  0  0
  123.8316  125.9825  145.6360 Cl  0  0  0  0  0  0  0  0  0  0  0  0
  122.8882  126.6875  143.1588 C   0  0  0  0  0  0  0  0  0  0  0  0
  122.1235  126.5314  142.0243 C   0  0  0  0  0  0  0  0  0  0  0  0
  122.1709  127.6990  140.7044 Cl  0  0  0  0  0  0  0  0  0  0  0  0
  121.2846  125.4523  141.8692 C   0  0  0  0  0  0  0  0  0  0  0  0
  118.6674  123.1836  141.2534 N   0  0  0  0  0  0  0  0  0  0  0  0
  118.5577  124.2290  140.2744 C   0  0  2  0  0  0  0  0  0  0  0  0
  117.9039  123.5737  139.0458 C   0  0  0  0  0  0  0  0  0  0  0  0
  118.7579  122.3026  138.9554 C   0  0  0  0  0  0  0  0  0  0  0  0
  120.4982  123.6509  138.7155 S   0  0  1  0  0  0  0  0  0  0  0  0
  119.8497  124.6906  139.7051 C   0  0  2  0  0  0  0  0  0  0  0  0
  120.6289  125.5837  140.5781 C   0  0  0  0  0  0  0  0  0  0  0  0
  120.7716  126.7421  140.1105 O   0  0  0  0  0  0  0  0  0  0  0  0
  121.4052  122.9823  137.9105 O   0  0  0  0  0  1  0  0  0  0  0  0
  1  2  2  0
  2  3  1  0
  3  4  1  0
  4  5  2  0
  5  6  1  0
  6  7  1  0
  6  8  2  0
  8  9  1  0
  9 10  1  0
  9 11  2  0
  2 12  1  0
 12 13  1  0
 13 14  1  6
 14 15  1  0
 15 16  1  0
 17 16  1  1
 17 18  1  0
 18 19  2  0
 16 20  1  0
 11  4  1  0
 18 11  1  0
 17 13  1  0
M  CHG  1  20  -1
M  END
>  <docking_score>  (1) 
-7.6710000000000003

$$$$

     RDKit          3D

 20 22  0  0  0  0  0  0  0  0999 V2000
  123.3829  126.0304  140.3769 O   0  0  0  0  0  0  0  0  0  0  0  0
  122.5180  125.3032  140.9427 C   0  0  0  0  0  0  0  0  0  0  0  0
  121.5837  124.6892  140.0332 N   0  0  0  0  0  0  0  0  0  0  0  0
  120.2611  124.1379  140.1801 C   0  0  0  0  0  0  0  0  0  0  0  0
  119.6987  124.1492  138.9347 C   0  0  0  0  0  0  0  0  0  0  0  0
  118.4155  123.6682  138.7901 C   0  0  0  0  0  0  0  0  0  0  0  0
  117.6347  123.6590  137.1931 Cl  0  0  0  0  0  0  0  0  0  0  0  0
  117.7499  123.1972  139.8944 C   0  0  0  0  0  0  0  0  0  0  0  0
  118.3451  123.1997  141.1361 C   0  0  0  0  0  0  0  0  0  0  0  0
  117.5096  122.6000  142.5678 Cl  0  0  0  0  0  0  0  0  0  0  0  0
  119.6244  123.6724  141.3159 C   0  0  0  0  0  0  0  0  0  0  0  0
  122.6137  125.2191  142.3394 N   0  0  0  0  0  0  0  0  0  0  0  0
  121.8665  124.9180  143.5288 C   0  0  2  0  0  0  0  0  0  0  0  0
  122.9179  124.7122  144.6328 C   0  0  0  0  0  0  0  0  0  0  0  0
  123.8876  123.7874  143.8862 C   0  0  0  0  0  0  0  0  0  0  0  0
  122.1840  122.3871  143.6837 S   0  0  1  0  0  0  0  0  0  0  0  0
  121.1880  123.5967  143.5232 C   0  0  2  0  0  0  0  0  0  0  0  0
  119.9518  123.5372  142.7261 C   0  0  0  0  0  0  0  0  0  0  0  0
  118.9224  123.3174  143.4137 O   0  0  0  0  0  0  0  0  0  0  0  0
  122.7215  121.1109  143.6895 O   0  0  0  0  0  1  0  0  0  0  0  0
  1  2  2  0
  2  3  1  0
  3  4  1  0
  4  5  2  0
  5  6  1  0
  6  7  1  0
  6  8  2  0
  8  9  1  0
  9 10  1  0
  9 11  2  0
  2 12  1  0
 12 13  1  0
 13 14  1  1
 14 15  1  0
 15 16  1  0
 17 16  1  6
 17 18  1  0
 18 19  2  0
 16 20  1  0
 11  4  1  0
 18 11  1  0
 17 13  1  0
M  CHG  1  20  -1
M  END
>  <docking_score>  (2) 
-7.1219999999999999

$$$$
