
     RDKit          3D

 16 16  0  0  0  0  0  0  0  0999 V2000
  149.8877  125.8810  131.2888 O   0  0  0  0  0  0  0  0  0  0  0  0
  148.8677  125.1280  131.2041 C   0  0  0  0  0  0  0  0  0  0  0  0
  147.6057  125.7808  131.1318 N   0  0  0  0  0  0  0  0  0  0  0  0
  147.5216  127.2017  131.1553 C   0  0  0  0  0  0  0  0  0  0  0  0
  147.3691  127.8941  132.3345 C   0  0  0  0  0  0  0  0  0  0  0  0
  147.2880  129.2912  132.3397 C   0  0  0  0  0  0  0  0  0  0  0  0
  147.0957  130.0503  133.8969 Cl  0  0  0  0  0  0  0  0  0  0  0  0
  147.3620  129.9617  131.1610 C   0  0  0  0  0  0  0  0  0  0  0  0
  147.5146  129.3066  129.9569 C   0  0  0  0  0  0  0  0  0  0  0  0
  147.5875  130.0013  128.7746 F   0  0  0  0  0  0  0  0  0  0  0  0
  147.5911  127.9301  129.9871 C   0  0  0  0  0  0  0  0  0  0  0  0
  149.0149  123.7205  131.1851 N   0  0  0  0  0  0  0  0  0  0  0  0
  150.3557  123.1588  131.2646 C   0  0  0  0  0  0  0  0  0  0  0  0
  150.5864  122.5300  132.6074 C   0  0  0  0  0  0  0  0  0  0  0  0
  150.7374  121.0286  132.5010 C   0  0  0  0  0  0  0  0  0  0  0  0
  149.5374  120.4831  132.0886 F   0  0  0  0  0  0  0  0  0  0  0  0
  1  2  2  0
  2  3  1  0
  3  4  1  0
  4  5  2  0
  5  6  1  0
  6  7  1  0
  6  8  2  0
  8  9  1  0
  9 10  1  0
  9 11  2  0
  2 12  1  0
 12 13  1  0
 13 14  1  0
 14 15  1  0
 15 16  1  0
 11  4  1  0
M  END
>  <docking_score>  (1) 
-5.7190000000000003

$$$$

     RDKit          3D

 16 16  0  0  0  0  0  0  0  0999 V2000
  121.0652  124.5693  142.6021 O   0  0  0  0  0  0  0  0  0  0  0  0
  122.1570  124.8959  142.0400 C   0  0  0  0  0  0  0  0  0  0  0  0
  122.0896  125.1798  140.6475 N   0  0  0  0  0  0  0  0  0  0  0  0
  120.8523  125.0942  139.9488 C   0  0  0  0  0  0  0  0  0  0  0  0
  119.9886  126.1632  139.8813 C   0  0  0  0  0  0  0  0  0  0  0  0
  118.7760  126.0621  139.1901 C   0  0  0  0  0  0  0  0  0  0  0  0
  117.7701  127.4855  139.1777 Cl  0  0  0  0  0  0  0  0  0  0  0  0
  118.4578  124.8900  138.5821 C   0  0  0  0  0  0  0  0  0  0  0  0
  119.2946  123.7945  138.6254 C   0  0  0  0  0  0  0  0  0  0  0  0
  118.9563  122.6172  138.0047 F   0  0  0  0  0  0  0  0  0  0  0  0
  120.4815  123.9279  139.3147 C   0  0  0  0  0  0  0  0  0  0  0  0
  123.3564  124.9639  142.7881 N   0  0  0  0  0  0  0  0  0  0  0  0
  123.3100  124.6522  144.2094 C   0  0  0  0  0  0  0  0  0  0  0  0
  124.3862  123.6709  144.5708 C   0  0  0  0  0  0  0  0  0  0  0  0
  125.7604  124.2986  144.4963 C   0  0  0  0  0  0  0  0  0  0  0  0
  126.3714  123.9077  143.3209 F   0  0  0  0  0  0  0  0  0  0  0  0
  1  2  2  0
  2  3  1  0
  3  4  1  0
  4  5  2  0
  5  6  1  0
  6  7  1  0
  6  8  2  0
  8  9  1  0
  9 10  1  0
  9 11  2  0
  2 12  1  0
 12 13  1  0
 13 14  1  0
 14 15  1  0
 15 16  1  0
 11  4  1  0
M  END
>  <docking_score>  (2) 
-5.3239999999999998

$$$$
