
     RDKit          3D

 21 23  0  0  0  0  0  0  0  0999 V2000
  124.5016  123.2023  145.4584 O   0  0  0  0  0  0  0  0  0  0  0  0
  124.6674  123.9106  144.4394 C   0  0  0  0  0  0  0  0  0  0  0  0
  126.0613  124.0731  144.1245 N   0  0  0  0  0  0  0  0  0  0  0  0
  126.8412  125.0750  143.4558 C   0  0  0  0  0  0  0  0  0  0  0  0
  128.1451  124.9285  143.8826 C   0  0  0  0  0  0  0  0  0  0  0  0
  129.1387  125.7571  143.4106 C   0  0  0  0  0  0  0  0  0  0  0  0
  130.8099  125.6036  143.9286 Cl  0  0  0  0  0  0  0  0  0  0  0  0
  128.7661  126.7264  142.5022 C   0  0  0  0  0  0  0  0  0  0  0  0
  127.4490  126.8701  142.0746 C   0  0  0  0  0  0  0  0  0  0  0  0
  127.0874  127.8223  141.1832 F   0  0  0  0  0  0  0  0  0  0  0  0
  126.4570  126.0390  142.5492 C   0  0  0  0  0  0  0  0  0  0  0  0
  123.4717  124.3787  143.8444 N   0  0  0  0  0  0  0  0  0  0  0  0
  123.0978  125.1435  142.6664 C   0  0  0  0  0  0  0  0  0  0  0  0
  121.7264  124.9478  142.2721 C   0  0  0  0  0  0  0  0  0  0  0  0
  121.1485  126.1193  141.5719 C   0  0  0  0  0  0  0  0  0  0  0  0
  122.7751  126.5972  140.6084 S   0  0  1  0  0  0  0  0  0  0  0  0
  123.8175  125.9327  141.9559 C   0  0  0  0  0  0  0  0  0  0  0  0
  125.2069  126.4447  141.9150 C   0  0  0  0  0  0  0  0  0  0  0  0
  125.3354  127.4498  141.1695 O   0  0  0  0  0  0  0  0  0  0  0  0
  122.7221  125.3000  139.1178 Cl  0  0  0  0  0  0  0  0  0  0  0  0
  122.9353  128.0612  140.1802 F   0  0  0  0  0  0  0  0  0  0  0  0
  1  2  2  0
  2  3  1  0
  3  4  1  0
  4  5  2  0
  5  6  1  0
  6  7  1  0
  6  8  2  0
  8  9  1  0
  9 10  1  0
  9 11  2  0
  2 12  1  0
 12 13  1  0
 13 14  1  0
 14 15  1  0
 15 16  1  0
 16 17  1  0
 17 18  1  0
 18 19  2  0
 16 20  1  0
 16 21  1  6
 11  4  1  0
 18 11  1  0
 13 17  2  0
M  END
>  <docking_score>  (1) 
-7.4989999999999997

$$$$

     RDKit          3D

 21 23  0  0  0  0  0  0  0  0999 V2000
  136.8719  118.7527  132.0780 O   0  0  0  0  0  0  0  0  0  0  0  0
  137.1475  117.8724  132.9247 C   0  0  0  0  0  0  0  0  0  0  0  0
  136.6302  118.2035  134.2252 N   0  0  0  0  0  0  0  0  0  0  0  0
  137.0022  117.8914  135.5756 C   0  0  0  0  0  0  0  0  0  0  0  0
  136.4516  118.8637  136.3849 C   0  0  0  0  0  0  0  0  0  0  0  0
  136.6373  118.8337  137.7492 C   0  0  0  0  0  0  0  0  0  0  0  0
  135.9536  120.0519  138.8138 Cl  0  0  0  0  0  0  0  0  0  0  0  0
  137.3917  117.7952  138.2553 C   0  0  0  0  0  0  0  0  0  0  0  0
  137.9450  116.8164  137.4343 C   0  0  0  0  0  0  0  0  0  0  0  0
  138.6845  115.7990  137.9346 F   0  0  0  0  0  0  0  0  0  0  0  0
  137.7572  116.8496  136.0691 C   0  0  0  0  0  0  0  0  0  0  0  0
  137.8885  116.7778  132.4190 N   0  0  0  0  0  0  0  0  0  0  0  0
  138.3931  115.5111  132.9221 C   0  0  0  0  0  0  0  0  0  0  0  0
  138.6822  114.5593  131.8805 C   0  0  0  0  0  0  0  0  0  0  0  0
  139.7530  113.6021  132.2465 C   0  0  0  0  0  0  0  0  0  0  0  0
  139.2407  113.4381  134.1209 S   0  0  1  0  0  0  0  0  0  0  0  0
  138.5935  115.1483  134.1362 C   0  0  0  0  0  0  0  0  0  0  0  0
  138.4557  115.6998  135.5041 C   0  0  0  0  0  0  0  0  0  0  0  0
  139.0784  115.0281  136.3664 O   0  0  0  0  0  0  0  0  0  0  0  0
  137.7336  112.1662  133.9873 Cl  0  0  0  0  0  0  0  0  0  0  0  0
  140.3349  113.0349  135.1171 F   0  0  0  0  0  0  0  0  0  0  0  0
  1  2  2  0
  2  3  1  0
  3  4  1  0
  4  5  2  0
  5  6  1  0
  6  7  1  0
  6  8  2  0
  8  9  1  0
  9 10  1  0
  9 11  2  0
  2 12  1  0
 12 13  1  0
 13 14  1  0
 14 15  1  0
 15 16  1  0
 16 17  1  0
 17 18  1  0
 18 19  2  0
 16 20  1  0
 16 21  1  1
 11  4  1  0
 18 11  1  0
 13 17  2  0
M  END
>  <docking_score>  (2) 
-7.4889999999999999

$$$$

     RDKit          3D

 21 23  0  0  0  0  0  0  0  0999 V2000
  120.1222  121.9672  142.4661 O   0  0  0  0  0  0  0  0  0  0  0  0
  120.8306  122.9984  142.5134 C   0  0  0  0  0  0  0  0  0  0  0  0
  120.1873  124.1164  141.8770 N   0  0  0  0  0  0  0  0  0  0  0  0
  120.6398  125.3100  141.2214 C   0  0  0  0  0  0  0  0  0  0  0  0
  119.6152  125.7387  140.4029 C   0  0  0  0  0  0  0  0  0  0  0  0
  119.7537  126.8740  139.6358 C   0  0  0  0  0  0  0  0  0  0  0  0
  118.4739  127.4530  138.5814 Cl  0  0  0  0  0  0  0  0  0  0  0  0
  120.9534  127.5491  139.7283 C   0  0  0  0  0  0  0  0  0  0  0  0
  121.9843  127.1125  140.5559 C   0  0  0  0  0  0  0  0  0  0  0  0
  123.1598  127.7776  140.6440 F   0  0  0  0  0  0  0  0  0  0  0  0
  121.8422  125.9756  141.3223 C   0  0  0  0  0  0  0  0  0  0  0  0
  122.0743  122.8313  143.1676 N   0  0  0  0  0  0  0  0  0  0  0  0
  123.1988  123.6706  143.5464 C   0  0  0  0  0  0  0  0  0  0  0  0
  124.0022  123.1051  144.5995 C   0  0  0  0  0  0  0  0  0  0  0  0
  125.4188  123.5379  144.5484 C   0  0  0  0  0  0  0  0  0  0  0  0
  125.0484  125.3610  143.9637 S   0  0  1  0  0  0  0  0  0  0  0  0
  123.5423  124.8159  143.0815 C   0  0  0  0  0  0  0  0  0  0  0  0
  123.0839  125.7928  142.0667 C   0  0  0  0  0  0  0  0  0  0  0  0
  123.9583  126.6526  141.7865 O   0  0  0  0  0  0  0  0  0  0  0  0
  124.5375  126.2068  145.6757 Cl  0  0  0  0  0  0  0  0  0  0  0  0
  126.1544  126.0911  143.1917 F   0  0  0  0  0  0  0  0  0  0  0  0
  1  2  2  0
  2  3  1  0
  3  4  1  0
  4  5  2  0
  5  6  1  0
  6  7  1  0
  6  8  2  0
  8  9  1  0
  9 10  1  0
  9 11  2  0
  2 12  1  0
 12 13  1  0
 13 14  1  0
 14 15  1  0
 15 16  1  0
 16 17  1  0
 17 18  1  0
 18 19  2  0
 16 20  1  0
 16 21  1  6
 11  4  1  0
 18 11  1  0
 13 17  2  0
M  END
>  <docking_score>  (3) 
-7.4809999999999999

$$$$
