
     RDKit          3D

 29 33  0  0  0  0  0  0  0  0999 V2000
  138.7389  131.5446  138.9775 O   0  0  0  0  0  0  0  0  0  0  0  0
  139.8961  131.9785  139.0962 C   0  0  0  0  0  0  0  0  0  0  0  0
  140.5652  132.4865  137.9698 N   0  0  0  0  0  0  0  0  0  0  0  0
  139.9967  132.5469  136.6416 C   0  0  2  0  0  0  0  0  0  0  0  0
  140.3398  131.2717  135.8133 C   0  0  0  0  0  0  0  0  0  0  0  0
  140.8307  132.6075  135.4408 C   0  0  2  0  0  0  0  0  0  0  0  0
  142.2735  132.9637  135.5266 C   0  0  0  0  0  0  0  0  0  0  0  0
  143.2771  132.0484  135.5026 C   0  0  0  0  0  0  0  0  0  0  0  0
  144.5805  132.4915  135.5888 C   0  0  0  0  0  0  0  0  0  0  0  0
  144.9127  133.8349  135.6992 C   0  0  0  0  0  0  0  0  0  0  0  0
  143.8761  134.7691  135.7232 C   0  0  0  0  0  0  0  0  0  0  0  0
  142.5903  134.3013  135.6360 C   0  0  0  0  0  0  0  0  0  0  0  0
  140.5183  131.9463  140.3934 N   0  0  0  0  0  0  0  0  0  0  0  0
  139.7533  132.1801  141.6015 C   0  0  0  0  0  0  0  0  0  0  0  0
  140.2807  133.3765  142.3565 C   0  0  0  0  0  0  0  0  0  0  0  0
  141.7654  133.5210  142.2543 C   0  0  0  0  0  0  0  0  0  0  0  0
  142.2402  134.8183  141.8009 C   0  0  0  0  0  0  0  0  0  0  0  0
  143.5157  135.2533  141.6873 N   0  0  0  0  0  0  0  0  0  0  0  0
  143.5180  136.5188  141.2290 C   0  0  0  0  0  0  0  0  0  0  0  0
  144.6663  137.3803  140.9561 C   0  0  0  0  0  0  0  0  0  0  0  0
  145.8505  137.1737  141.6283 C   0  0  0  0  0  0  0  0  0  0  0  0
  146.9735  137.9746  141.3982 C   0  0  0  0  0  0  0  0  0  0  0  0
  146.8872  138.9802  140.4870 C   0  0  0  0  0  0  0  0  0  0  0  0
  145.7257  139.2075  139.8062 C   0  0  0  0  0  0  0  0  0  0  0  0
  144.6149  138.4074  140.0408 C   0  0  0  0  0  0  0  0  0  0  0  0
  142.2259  136.8369  141.0694 N   0  0  0  0  0  0  0  0  0  0  0  0
  141.4979  135.8169  141.4137 O   0  0  0  0  0  0  0  0  0  0  0  0
  142.4832  132.3392  141.7380 C   0  0  0  0  0  0  0  0  0  0  0  0
  141.9267  131.6786  140.5313 C   0  0  0  0  0  0  0  0  0  0  0  0
  1  2  2  0
  2  3  1  0
  4  3  1  1
  4  5  1  0
  5  6  1  0
  6  7  1  1
  7  8  2  0
  8  9  1  0
  9 10  2  0
 10 11  1  0
 11 12  2  0
  2 13  1  0
 13 14  1  0
 14 15  1  0
 15 16  1  0
 16 17  1  0
 17 18  2  0
 18 19  1  0
 19 20  1  0
 20 21  2  0
 21 22  1  0
 22 23  2  0
 23 24  1  0
 24 25  2  0
 19 26  2  0
 26 27  1  0
 16 28  1  0
 28 29  1  0
  6  4  1  0
 12  7  1  0
 29 13  1  0
 27 17  1  0
 25 20  1  0
M  END
>  <docking_score>  (1) 
-9.2059999999999995

$$$$

     RDKit          3D

 29 33  0  0  0  0  0  0  0  0999 V2000
  126.5237  141.9215  141.7364 O   0  0  0  0  0  0  0  0  0  0  0  0
  127.5452  142.0048  142.4371 C   0  0  0  0  0  0  0  0  0  0  0  0
  127.4213  142.1907  143.8244 N   0  0  0  0  0  0  0  0  0  0  0  0
  126.1603  142.2956  144.5241 C   0  0  2  0  0  0  0  0  0  0  0  0
  126.3699  142.5650  146.0451 C   0  0  0  0  0  0  0  0  0  0  0  0
  125.7533  141.3273  145.5430 C   0  0  2  0  0  0  0  0  0  0  0  0
  126.4337  140.0088  145.6627 C   0  0  0  0  0  0  0  0  0  0  0  0
  127.7724  139.8669  145.8460 C   0  0  0  0  0  0  0  0  0  0  0  0
  128.2968  138.5949  145.9437 C   0  0  0  0  0  0  0  0  0  0  0  0
  127.5151  137.4505  145.8628 C   0  0  0  0  0  0  0  0  0  0  0  0
  126.1408  137.6045  145.6744 C   0  0  0  0  0  0  0  0  0  0  0  0
  125.6463  138.8798  145.5806 C   0  0  0  0  0  0  0  0  0  0  0  0
  128.8320  141.9079  141.8000 N   0  0  0  0  0  0  0  0  0  0  0  0
  129.0223  142.3129  140.4220 C   0  0  0  0  0  0  0  0  0  0  0  0
  129.5030  141.1578  139.5768 C   0  0  0  0  0  0  0  0  0  0  0  0
  130.4123  140.2320  140.3196 C   0  0  0  0  0  0  0  0  0  0  0  0
  130.0348  138.8281  140.2958 C   0  0  0  0  0  0  0  0  0  0  0  0
  130.0510  137.9713  139.2496 N   0  0  0  0  0  0  0  0  0  0  0  0
  129.6239  136.7612  139.6552 C   0  0  0  0  0  0  0  0  0  0  0  0
  129.4801  135.5405  138.8648 C   0  0  0  0  0  0  0  0  0  0  0  0
  130.5516  135.0642  138.1424 C   0  0  0  0  0  0  0  0  0  0  0  0
  130.4576  133.9005  137.3727 C   0  0  0  0  0  0  0  0  0  0  0  0
  129.2763  133.2277  137.3411 C   0  0  0  0  0  0  0  0  0  0  0  0
  128.1979  133.6773  138.0476 C   0  0  0  0  0  0  0  0  0  0  0  0
  128.2997  134.8341  138.8096 C   0  0  0  0  0  0  0  0  0  0  0  0
  129.3512  136.9040  140.9596 N   0  0  0  0  0  0  0  0  0  0  0  0
  129.6026  138.1305  141.3081 O   0  0  0  0  0  0  0  0  0  0  0  0
  130.9399  140.7510  141.5966 C   0  0  0  0  0  0  0  0  0  0  0  0
  129.9753  141.4038  142.5163 C   0  0  0  0  0  0  0  0  0  0  0  0
  1  2  2  0
  2  3  1  0
  4  3  1  6
  4  5  1  0
  5  6  1  0
  6  7  1  6
  7  8  2  0
  8  9  1  0
  9 10  2  0
 10 11  1  0
 11 12  2  0
  2 13  1  0
 13 14  1  0
 14 15  1  0
 15 16  1  0
 16 17  1  0
 17 18  2  0
 18 19  1  0
 19 20  1  0
 20 21  2  0
 21 22  1  0
 22 23  2  0
 23 24  1  0
 24 25  2  0
 19 26  2  0
 26 27  1  0
 16 28  1  0
 28 29  1  0
  6  4  1  0
 12  7  1  0
 29 13  1  0
 27 17  1  0
 25 20  1  0
M  END
>  <docking_score>  (2) 
-8.4359999999999999

$$$$

     RDKit          3D

 29 33  0  0  0  0  0  0  0  0999 V2000
  143.9147  136.3034  135.9414 O   0  0  0  0  0  0  0  0  0  0  0  0
  143.3578  135.4209  136.6140 C   0  0  0  0  0  0  0  0  0  0  0  0
  143.0422  135.6706  137.9604 N   0  0  0  0  0  0  0  0  0  0  0  0
  143.3222  136.9119  138.6472 C   0  0  2  0  0  0  0  0  0  0  0  0
  144.5406  136.7717  139.6095 C   0  0  0  0  0  0  0  0  0  0  0  0
  143.1803  137.0474  140.0973 C   0  0  2  0  0  0  0  0  0  0  0  0
  142.4145  136.0465  140.8895 C   0  0  0  0  0  0  0  0  0  0  0  0
  141.0699  136.1036  141.0755 C   0  0  0  0  0  0  0  0  0  0  0  0
  140.4627  135.1209  141.8292 C   0  0  0  0  0  0  0  0  0  0  0  0
  141.1667  134.0735  142.4076 C   0  0  0  0  0  0  0  0  0  0  0  0
  142.5476  134.0218  142.2120 C   0  0  0  0  0  0  0  0  0  0  0  0
  143.1252  135.0111  141.4589 C   0  0  0  0  0  0  0  0  0  0  0  0
  143.0520  134.1619  135.9877 N   0  0  0  0  0  0  0  0  0  0  0  0
  142.3356  134.1011  134.7297 C   0  0  0  0  0  0  0  0  0  0  0  0
  141.0433  133.3343  134.8761 C   0  0  0  0  0  0  0  0  0  0  0  0
  141.1453  132.2017  135.8469 C   0  0  0  0  0  0  0  0  0  0  0  0
  140.1440  132.1861  136.9010 C   0  0  0  0  0  0  0  0  0  0  0  0
  140.3291  132.0504  138.2337 N   0  0  0  0  0  0  0  0  0  0  0  0
  139.1372  132.0892  138.8577 C   0  0  0  0  0  0  0  0  0  0  0  0
  138.8608  131.9819  140.2885 C   0  0  0  0  0  0  0  0  0  0  0  0
  139.5972  131.1134  141.0633 C   0  0  0  0  0  0  0  0  0  0  0  0
  139.3658  130.9792  142.4359 C   0  0  0  0  0  0  0  0  0  0  0  0
  138.3882  131.7275  143.0132 C   0  0  0  0  0  0  0  0  0  0  0  0
  137.6430  132.5965  142.2691 C   0  0  0  0  0  0  0  0  0  0  0  0
  137.8792  132.7237  140.9063 C   0  0  0  0  0  0  0  0  0  0  0  0
  138.2343  132.2502  137.8804 N   0  0  0  0  0  0  0  0  0  0  0  0
  138.8561  132.3038  136.7404 O   0  0  0  0  0  0  0  0  0  0  0  0
  142.5175  131.8218  136.2358 C   0  0  0  0  0  0  0  0  0  0  0  0
  143.4513  132.9182  136.5943 C   0  0  0  0  0  0  0  0  0  0  0  0
  1  2  2  0
  2  3  1  0
  4  3  1  1
  4  5  1  0
  5  6  1  0
  6  7  1  1
  7  8  2  0
  8  9  1  0
  9 10  2  0
 10 11  1  0
 11 12  2  0
  2 13  1  0
 13 14  1  0
 14 15  1  0
 15 16  1  0
 16 17  1  0
 17 18  2  0
 18 19  1  0
 19 20  1  0
 20 21  2  0
 21 22  1  0
 22 23  2  0
 23 24  1  0
 24 25  2  0
 19 26  2  0
 26 27  1  0
 16 28  1  0
 28 29  1  0
  6  4  1  0
 12  7  1  0
 29 13  1  0
 27 17  1  0
 25 20  1  0
M  END
>  <docking_score>  (3) 
-8.0619999999999994

$$$$
