
     RDKit          3D

 29 33  0  0  0  0  0  0  0  0999 V2000
  133.9919  122.8061  139.0935 O   0  0  0  0  0  0  0  0  0  0  0  0
  133.4392  122.1428  140.0090 C   0  0  0  0  0  0  0  0  0  0  0  0
  133.9787  120.8464  140.2365 N   0  0  0  0  0  0  0  0  0  0  0  0
  135.1108  120.3554  139.4305 C   0  0  1  0  0  0  0  0  0  0  0  0
  136.2240  119.8708  140.4176 C   0  0  0  0  0  0  0  0  0  0  0  0
  135.4836  118.9352  139.4520 C   0  0  2  0  0  0  0  0  0  0  0  0
  136.3533  118.4894  138.3105 C   0  0  0  0  0  0  0  0  0  0  0  0
  137.4026  117.6219  138.5367 C   0  0  0  0  0  0  0  0  0  0  0  0
  138.1747  117.2331  137.4740 C   0  0  0  0  0  0  0  0  0  0  0  0
  137.9403  117.6763  136.1918 C   0  0  0  0  0  0  0  0  0  0  0  0
  136.8888  118.5423  135.9803 C   0  0  0  0  0  0  0  0  0  0  0  0
  136.1194  118.9329  137.0268 C   0  0  0  0  0  0  0  0  0  0  0  0
  132.3744  122.7265  140.7006 N   0  0  0  0  0  0  0  0  0  0  0  0
  131.8433  124.0440  140.4520 C   0  0  1  0  0  0  0  0  0  0  0  0
  130.3986  124.0546  140.9053 C   0  0  0  0  0  0  0  0  0  0  0  0
  130.2678  125.2324  141.8446 C   0  0  2  0  0  0  0  0  0  0  0  0
  129.8722  126.4195  141.0531 C   0  0  0  0  0  0  0  0  0  0  0  0
  129.5868  127.6365  141.4888 N   0  0  0  0  0  0  0  0  0  0  0  0
  129.2743  128.4279  140.4479 C   0  0  0  0  0  0  0  0  0  0  0  0
  128.9004  129.8343  140.4695 C   0  0  0  0  0  0  0  0  0  0  0  0
  127.7451  130.2958  141.0517 C   0  0  0  0  0  0  0  0  0  0  0  0
  127.4059  131.6420  141.0612 C   0  0  0  0  0  0  0  0  0  0  0  0
  128.2935  132.5056  140.4514 C   0  0  0  0  0  0  0  0  0  0  0  0
  129.4374  132.0433  139.8760 C   0  0  0  0  0  0  0  0  0  0  0  0
  129.7166  130.7362  139.8945 N   0  0  0  0  0  0  0  0  0  0  0  0
  129.3853  127.6300  139.3683 N   0  0  0  0  0  0  0  0  0  0  0  0
  129.7391  126.4444  139.7393 O   0  0  0  0  0  0  0  0  0  0  0  0
  131.6452  125.4029  142.4177 C   0  0  0  0  0  0  0  0  0  0  0  0
  132.5488  125.1093  141.2457 C   0  0  0  0  0  0  0  0  0  0  0  0
  1  2  2  0
  2  3  1  0
  4  3  1  1
  4  5  1  0
  5  6  1  0
  6  7  1  6
  7  8  2  0
  8  9  1  0
  9 10  2  0
 10 11  1  0
 11 12  2  0
  2 13  1  0
 14 13  1  1
 14 15  1  0
 15 16  1  0
 16 17  1  6
 17 18  2  0
 18 19  1  0
 19 20  1  0
 20 21  2  0
 21 22  1  0
 22 23  2  0
 23 24  1  0
 24 25  2  0
 19 26  2  0
 26 27  1  0
 16 28  1  0
 28 29  1  0
  6  4  1  0
 12  7  1  0
 29 14  1  0
 27 17  1  0
 25 20  1  0
M  END
>  <docking_score>  (1) 
-8.6069999999999993

$$$$

     RDKit          3D

 29 33  0  0  0  0  0  0  0  0999 V2000
  133.9732  123.9542  139.0628 O   0  0  0  0  0  0  0  0  0  0  0  0
  133.0079  123.4362  139.6818 C   0  0  0  0  0  0  0  0  0  0  0  0
  133.2061  122.0952  140.1127 N   0  0  0  0  0  0  0  0  0  0  0  0
  134.4746  121.3991  139.8320 C   0  0  1  0  0  0  0  0  0  0  0  0
  135.0156  120.8296  141.1852 C   0  0  0  0  0  0  0  0  0  0  0  0
  134.5844  119.9453  140.0072 C   0  0  2  0  0  0  0  0  0  0  0  0
  135.7554  119.3085  139.3134 C   0  0  0  0  0  0  0  0  0  0  0  0
  136.8936  120.0459  139.0572 C   0  0  0  0  0  0  0  0  0  0  0  0
  137.9442  119.4348  138.4253 C   0  0  0  0  0  0  0  0  0  0  0  0
  137.9040  118.1141  138.0385 C   0  0  0  0  0  0  0  0  0  0  0  0
  136.7610  117.3894  138.3008 C   0  0  0  0  0  0  0  0  0  0  0  0
  135.7158  117.9866  138.9258 C   0  0  0  0  0  0  0  0  0  0  0  0
  131.8600  124.2070  139.8846 N   0  0  0  0  0  0  0  0  0  0  0  0
  131.6809  125.5664  139.4376 C   0  0  1  0  0  0  0  0  0  0  0  0
  130.2169  125.7544  139.1001 C   0  0  0  0  0  0  0  0  0  0  0  0
  129.7658  126.9711  139.8765 C   0  0  2  0  0  0  0  0  0  0  0  0
  129.9615  128.1670  139.0259 C   0  0  0  0  0  0  0  0  0  0  0  0
  129.7953  129.4395  139.3510 N   0  0  0  0  0  0  0  0  0  0  0  0
  130.0775  130.2176  138.2915 C   0  0  0  0  0  0  0  0  0  0  0  0
  130.0292  131.6697  138.2055 C   0  0  0  0  0  0  0  0  0  0  0  0
  129.1953  132.4408  138.9777 C   0  0  0  0  0  0  0  0  0  0  0  0
  129.1638  133.8253  138.8801 C   0  0  0  0  0  0  0  0  0  0  0  0
  130.0191  134.3981  137.9605 C   0  0  0  0  0  0  0  0  0  0  0  0
  130.8440  133.6294  137.1976 C   0  0  0  0  0  0  0  0  0  0  0  0
  130.8349  132.2994  137.3310 N   0  0  0  0  0  0  0  0  0  0  0  0
  130.4204  129.3538  137.3165 N   0  0  0  0  0  0  0  0  0  0  0  0
  130.3476  128.1439  137.7631 O   0  0  0  0  0  0  0  0  0  0  0  0
  130.6754  127.0058  141.0706 C   0  0  0  0  0  0  0  0  0  0  0  0
  132.0063  126.5726  140.5072 C   0  0  0  0  0  0  0  0  0  0  0  0
  1  2  2  0
  2  3  1  0
  4  3  1  1
  4  5  1  0
  5  6  1  0
  6  7  1  6
  7  8  2  0
  8  9  1  0
  9 10  2  0
 10 11  1  0
 11 12  2  0
  2 13  1  0
 14 13  1  1
 14 15  1  0
 15 16  1  0
 16 17  1  6
 17 18  2  0
 18 19  1  0
 19 20  1  0
 20 21  2  0
 21 22  1  0
 22 23  2  0
 23 24  1  0
 24 25  2  0
 19 26  2  0
 26 27  1  0
 16 28  1  0
 28 29  1  0
  6  4  1  0
 12  7  1  0
 29 14  1  0
 27 17  1  0
 25 20  1  0
M  END
>  <docking_score>  (2) 
-8.5909999999999993

$$$$

     RDKit          3D

 29 33  0  0  0  0  0  0  0  0999 V2000
  129.0712  131.7789  141.5898 O   0  0  0  0  0  0  0  0  0  0  0  0
  129.7456  131.1927  140.7038 C   0  0  0  0  0  0  0  0  0  0  0  0
  130.5026  132.0414  139.8494 N   0  0  0  0  0  0  0  0  0  0  0  0
  130.4702  133.5040  140.0283 C   0  0  1  0  0  0  0  0  0  0  0  0
  131.8758  134.0643  139.6300 C   0  0  0  0  0  0  0  0  0  0  0  0
  130.5847  134.4014  138.8716 C   0  0  2  0  0  0  0  0  0  0  0  0
  130.1319  135.8134  139.1158 C   0  0  0  0  0  0  0  0  0  0  0  0
  131.0426  136.7760  139.5018 C   0  0  0  0  0  0  0  0  0  0  0  0
  130.5976  138.0541  139.7141 C   0  0  0  0  0  0  0  0  0  0  0  0
  129.2773  138.4104  139.5556 C   0  0  0  0  0  0  0  0  0  0  0  0
  128.3786  137.4389  139.1697 C   0  0  0  0  0  0  0  0  0  0  0  0
  128.8104  136.1707  138.9577 C   0  0  0  0  0  0  0  0  0  0  0  0
  129.6906  129.7976  140.6432 N   0  0  0  0  0  0  0  0  0  0  0  0
  128.9145  128.9567  141.5208 C   0  0  1  0  0  0  0  0  0  0  0  0
  128.7870  127.5969  140.8670 C   0  0  0  0  0  0  0  0  0  0  0  0
  129.2523  126.5954  141.9000 C   0  0  2  0  0  0  0  0  0  0  0  0
  128.0785  126.1597  142.6901 C   0  0  0  0  0  0  0  0  0  0  0  0
  126.7996  126.2087  142.3520 N   0  0  0  0  0  0  0  0  0  0  0  0
  126.0483  125.7136  143.3510 C   0  0  0  0  0  0  0  0  0  0  0  0
  124.6002  125.5768  143.4028 C   0  0  0  0  0  0  0  0  0  0  0  0
  123.9321  125.0668  144.4892 C   0  0  0  0  0  0  0  0  0  0  0  0
  122.5496  124.9437  144.5188 C   0  0  0  0  0  0  0  0  0  0  0  0
  121.8693  125.3624  143.3931 C   0  0  0  0  0  0  0  0  0  0  0  0
  122.5360  125.8675  142.3190 C   0  0  0  0  0  0  0  0  0  0  0  0
  123.8690  125.9642  142.3420 N   0  0  0  0  0  0  0  0  0  0  0  0
  126.9349  125.3656  144.3034 N   0  0  0  0  0  0  0  0  0  0  0  0
  128.1325  125.6348  143.9009 O   0  0  0  0  0  0  0  0  0  0  0  0
  130.2187  127.3657  142.7528 C   0  0  0  0  0  0  0  0  0  0  0  0
  129.5865  128.7324  142.8477 C   0  0  0  0  0  0  0  0  0  0  0  0
  1  2  2  0
  2  3  1  0
  4  3  1  6
  4  5  1  0
  5  6  1  0
  6  7  1  1
  7  8  2  0
  8  9  1  0
  9 10  2  0
 10 11  1  0
 11 12  2  0
  2 13  1  0
 14 13  1  6
 14 15  1  0
 15 16  1  0
 16 17  1  1
 17 18  2  0
 18 19  1  0
 19 20  1  0
 20 21  2  0
 21 22  1  0
 22 23  2  0
 23 24  1  0
 24 25  2  0
 19 26  2  0
 26 27  1  0
 16 28  1  0
 28 29  1  0
  6  4  1  0
 12  7  1  0
 29 14  1  0
 27 17  1  0
 25 20  1  0
M  END
>  <docking_score>  (3) 
-8.0090000000000003

$$$$
