
     RDKit          3D

 29 32  0  0  0  0  0  0  0  0999 V2000
  132.5948  125.0293  140.2323 O   0  0  0  0  0  1  0  0  0  0  0  0
  133.8901  124.9821  139.7789 C   0  0  1  0  0  0  0  0  0  0  0  0
  134.6942  123.9585  140.4365 N   0  0  0  0  0  0  0  0  0  0  0  0
  134.4204  122.7145  139.7773 C   0  0  2  0  0  0  0  0  0  0  0  0
  133.2673  121.8684  140.1557 C   0  0  0  0  0  0  0  0  0  0  0  0
  134.6516  121.4018  140.4040 C   0  0  1  0  0  0  0  0  0  0  0  0
  135.2672  120.3697  139.5328 C   0  0  0  0  0  0  0  0  0  0  0  0
  134.8418  119.0607  139.5939 C   0  0  0  0  0  0  0  0  0  0  0  0
  135.3640  118.0526  138.8194 C   0  0  0  0  0  0  0  0  0  0  0  0
  136.3663  118.3483  137.9301 C   0  0  0  0  0  0  0  0  0  0  0  0
  136.8210  119.6446  137.8374 C   0  0  0  0  0  0  0  0  0  0  0  0
  136.2747  120.6568  138.6360 C   0  0  0  0  0  0  0  0  0  0  0  0
  134.0090  124.7927  138.3665 N   0  0  0  0  0  0  0  0  0  0  0  0
  135.0575  125.6355  137.7869 C   0  0  0  0  0  0  0  0  0  0  0  0
  134.7999  127.0850  138.1391 C   0  0  0  0  0  0  0  0  0  0  0  0
  133.7976  127.6435  137.1823 C   0  0  1  0  0  0  0  0  0  0  0  0
  132.6178  128.2269  137.8306 C   0  0  0  0  0  0  0  0  0  0  0  0
  132.1198  128.0110  139.0631 N   0  0  0  0  0  0  0  0  0  0  0  0
  131.0106  128.7648  139.2460 C   0  0  0  0  0  0  0  0  0  0  0  0
  130.1748  128.8248  140.4380 C   0  0  0  0  0  0  0  0  0  0  0  0
  128.9277  129.3701  140.3757 C   0  0  0  0  0  0  0  0  0  0  0  0
  128.1671  129.4019  141.5508 C   0  0  0  0  0  0  0  0  0  0  0  0
  128.6944  128.8887  142.7174 C   0  0  0  0  0  0  0  0  0  0  0  0
  129.9348  128.3638  142.7089 N   0  0  0  0  0  0  0  0  0  0  0  0
  130.6609  128.3324  141.5908 N   0  0  0  0  0  0  0  0  0  0  0  0
  130.8665  129.4345  138.0837 N   0  0  0  0  0  0  0  0  0  0  0  0
  131.8205  129.1048  137.2647 O   0  0  0  0  0  0  0  0  0  0  0  0
  134.3889  128.4941  136.1019 C   0  0  0  0  0  0  0  0  0  0  0  0
  134.1991  127.9571  134.7204 C   0  0  0  0  0  0  0  0  0  0  0  0
  2  1  1  1
  2  3  1  0
  4  3  1  1
  4  5  1  0
  5  6  1  0
  6  7  1  6
  7  8  2  0
  8  9  1  0
  9 10  2  0
 10 11  1  0
 11 12  2  0
  2 13  1  0
 13 14  1  0
 14 15  1  0
 16 15  1  1
 16 17  1  0
 17 18  2  0
 18 19  1  0
 19 20  1  0
 20 21  2  0
 21 22  1  0
 22 23  2  0
 23 24  1  0
 24 25  2  0
 19 26  2  0
 26 27  1  0
 16 28  1  0
 28 29  1  0
  6  4  1  0
 12  7  1  0
 27 17  1  0
 25 20  1  0
M  CHG  1   1  -1
M  END
>  <docking_score>  (1) 
-6.6820000000000004

$$$$

     RDKit          3D

 29 32  0  0  0  0  0  0  0  0999 V2000
  140.3120  133.6978  137.4064 O   0  0  0  0  0  1  0  0  0  0  0  0
  140.9666  133.8738  136.2122 C   0  0  1  0  0  0  0  0  0  0  0  0
  140.0831  134.2773  135.1245 N   0  0  0  0  0  0  0  0  0  0  0  0
  139.0741  133.2657  134.9991 C   0  0  2  0  0  0  0  0  0  0  0  0
  138.2253  133.1559  133.7924 C   0  0  0  0  0  0  0  0  0  0  0  0
  137.6318  133.5495  135.0918 C   0  0  1  0  0  0  0  0  0  0  0  0
  136.8321  132.5790  135.8804 C   0  0  0  0  0  0  0  0  0  0  0  0
  137.4482  131.7298  136.7734 C   0  0  0  0  0  0  0  0  0  0  0  0
  136.7741  130.8068  137.5366 C   0  0  0  0  0  0  0  0  0  0  0  0
  135.4105  130.7118  137.4151 C   0  0  0  0  0  0  0  0  0  0  0  0
  134.7555  131.5422  136.5336 C   0  0  0  0  0  0  0  0  0  0  0  0
  135.4618  132.4759  135.7655 C   0  0  0  0  0  0  0  0  0  0  0  0
  142.0469  134.8090  136.2695 N   0  0  0  0  0  0  0  0  0  0  0  0
  142.5283  135.0072  137.6385 C   0  0  0  0  0  0  0  0  0  0  0  0
  142.6383  136.4882  137.9314 C   0  0  0  0  0  0  0  0  0  0  0  0
  143.0495  136.6694  139.3561 C   0  0  1  0  0  0  0  0  0  0  0  0
  144.3873  137.2493  139.5196 C   0  0  0  0  0  0  0  0  0  0  0  0
  145.0753  137.5184  140.6456 N   0  0  0  0  0  0  0  0  0  0  0  0
  146.2780  138.0528  140.3293 C   0  0  0  0  0  0  0  0  0  0  0  0
  147.3199  138.4823  141.2528 C   0  0  0  0  0  0  0  0  0  0  0  0
  147.9703  139.6629  141.0538 C   0  0  0  0  0  0  0  0  0  0  0  0
  148.9625  140.0273  141.9720 C   0  0  0  0  0  0  0  0  0  0  0  0
  149.2474  139.1936  143.0333 C   0  0  0  0  0  0  0  0  0  0  0  0
  148.5659  138.0401  143.1709 N   0  0  0  0  0  0  0  0  0  0  0  0
  147.6204  137.6911  142.2976 N   0  0  0  0  0  0  0  0  0  0  0  0
  146.2818  138.0920  138.9807 N   0  0  0  0  0  0  0  0  0  0  0  0
  145.1620  137.6157  138.5235 O   0  0  0  0  0  0  0  0  0  0  0  0
  141.9999  137.2917  140.2230 C   0  0  0  0  0  0  0  0  0  0  0  0
  141.8357  136.6398  141.5576 C   0  0  0  0  0  0  0  0  0  0  0  0
  2  1  1  1
  2  3  1  0
  4  3  1  6
  4  5  1  0
  5  6  1  0
  6  7  1  1
  7  8  2  0
  8  9  1  0
  9 10  2  0
 10 11  1  0
 11 12  2  0
  2 13  1  0
 13 14  1  0
 14 15  1  0
 16 15  1  6
 16 17  1  0
 17 18  2  0
 18 19  1  0
 19 20  1  0
 20 21  2  0
 21 22  1  0
 22 23  2  0
 23 24  1  0
 24 25  2  0
 19 26  2  0
 26 27  1  0
 16 28  1  0
 28 29  1  0
  6  4  1  0
 12  7  1  0
 27 17  1  0
 25 20  1  0
M  CHG  1   1  -1
M  END
>  <docking_score>  (2) 
-6.6379999999999999

$$$$

     RDKit          3D

 29 32  0  0  0  0  0  0  0  0999 V2000
  136.6951  122.5358  139.8172 O   0  0  0  0  0  1  0  0  0  0  0  0
  135.6801  121.6173  139.7092 C   0  0  1  0  0  0  0  0  0  0  0  0
  136.0984  120.2561  140.0235 N   0  0  0  0  0  0  0  0  0  0  0  0
  135.7023  119.4251  138.9237 C   0  0  2  0  0  0  0  0  0  0  0  0
  134.9937  118.1429  139.1303 C   0  0  0  0  0  0  0  0  0  0  0  0
  136.3727  118.1572  138.5885 C   0  0  1  0  0  0  0  0  0  0  0  0
  136.6180  117.9186  137.1441 C   0  0  0  0  0  0  0  0  0  0  0  0
  135.6099  117.4427  136.3345 C   0  0  0  0  0  0  0  0  0  0  0  0
  135.7629  117.1982  134.9907 C   0  0  0  0  0  0  0  0  0  0  0  0
  136.9814  117.4354  134.4060 C   0  0  0  0  0  0  0  0  0  0  0  0
  138.0162  117.9114  135.1797 C   0  0  0  0  0  0  0  0  0  0  0  0
  137.8386  118.1539  136.5473 C   0  0  0  0  0  0  0  0  0  0  0  0
  134.5315  121.9180  140.5062 N   0  0  0  0  0  0  0  0  0  0  0  0
  133.5329  122.6871  139.7602 C   0  0  0  0  0  0  0  0  0  0  0  0
  133.2849  124.0096  140.4537 C   0  0  0  0  0  0  0  0  0  0  0  0
  134.2854  125.0058  139.9655 C   0  0  1  0  0  0  0  0  0  0  0  0
  133.8333  125.7830  138.8060 C   0  0  0  0  0  0  0  0  0  0  0  0
  133.0199  126.8552  138.7547 N   0  0  0  0  0  0  0  0  0  0  0  0
  132.8717  127.2548  137.4700 C   0  0  0  0  0  0  0  0  0  0  0  0
  132.0755  128.3739  136.9834 C   0  0  0  0  0  0  0  0  0  0  0  0
  131.1456  128.9575  137.7902 C   0  0  0  0  0  0  0  0  0  0  0  0
  130.4087  130.0294  137.2720 C   0  0  0  0  0  0  0  0  0  0  0  0
  130.6425  130.4556  135.9812 C   0  0  0  0  0  0  0  0  0  0  0  0
  131.5773  129.8335  135.2374 N   0  0  0  0  0  0  0  0  0  0  0  0
  132.2803  128.8125  135.7289 N   0  0  0  0  0  0  0  0  0  0  0  0
  133.6226  126.3864  136.7613 N   0  0  0  0  0  0  0  0  0  0  0  0
  134.1795  125.5292  137.5641 O   0  0  0  0  0  0  0  0  0  0  0  0
  134.9126  125.8265  141.0487 C   0  0  0  0  0  0  0  0  0  0  0  0
  135.7276  125.0412  142.0244 C   0  0  0  0  0  0  0  0  0  0  0  0
  2  1  1  1
  2  3  1  0
  4  3  1  1
  4  5  1  0
  5  6  1  0
  6  7  1  6
  7  8  2  0
  8  9  1  0
  9 10  2  0
 10 11  1  0
 11 12  2  0
  2 13  1  0
 13 14  1  0
 14 15  1  0
 16 15  1  1
 16 17  1  0
 17 18  2  0
 18 19  1  0
 19 20  1  0
 20 21  2  0
 21 22  1  0
 22 23  2  0
 23 24  1  0
 24 25  2  0
 19 26  2  0
 26 27  1  0
 16 28  1  0
 28 29  1  0
  6  4  1  0
 12  7  1  0
 27 17  1  0
 25 20  1  0
M  CHG  1   1  -1
M  END
>  <docking_score>  (3) 
-6.5960000000000001

$$$$
