
     RDKit          3D

 23 24  0  0  0  0  0  0  0  0999 V2000
  125.8066  139.3593  146.0171 C   0  0  0  0  0  0  0  0  0  0  0  0
  127.1039  138.6453  146.1787 C   0  0  0  0  0  0  0  0  0  0  0  0
  127.0529  137.1809  145.8322 C   0  0  0  0  0  0  0  0  0  0  0  0
  128.0849  139.2796  145.2792 N   0  0  0  0  0  0  0  0  0  0  0  0
  127.4265  139.4154  144.0296 C   0  0  0  0  0  0  0  0  0  0  0  0
  127.8105  140.5627  143.1851 C   0  0  1  0  0  0  0  0  0  0  0  0
  127.3219  140.3260  141.7059 C   0  0  0  0  0  0  0  0  0  0  0  0
  128.2864  139.6678  140.8585 C   0  0  0  0  0  0  0  0  0  0  0  0
  129.4227  140.3036  140.3141 N   0  0  0  0  0  0  0  0  0  0  0  0
  129.6102  141.6205  139.8504 C   0  0  0  0  0  0  0  0  0  0  0  0
  130.6409  141.7432  139.0496 O   0  0  0  0  0  0  0  0  0  0  0  0
  128.8821  142.7645  140.1093 N   0  0  0  0  0  0  0  0  0  0  0  0
  128.6321  143.5053  141.2549 C   0  0  0  0  0  0  0  0  0  0  0  0
  129.5343  143.9546  142.1304 C   0  0  0  0  0  0  0  0  0  0  0  0
  129.1873  144.7173  143.3021 C   0  0  0  0  0  0  0  0  0  0  0  0
  130.1578  146.1697  143.6426 S   0  0  0  0  0  0  0  0  0  0  0  0
  128.1911  144.3034  144.0502 C   0  0  0  0  0  0  0  0  0  0  0  0
  127.4178  143.0554  143.7078 C   0  0  0  0  0  0  0  0  0  0  0  0
  126.0726  143.2989  143.7145 F   0  0  0  0  0  0  0  0  0  0  0  0
  127.9650  141.9325  143.5069 C   0  0  0  0  0  0  0  0  0  0  0  0
  130.5972  139.3541  140.1975 C   0  0  0  0  0  0  0  0  0  0  0  0
  130.1470  137.9810  139.8158 C   0  0  0  0  0  0  0  0  0  0  0  0
  129.2166  141.0257  143.2587 C   0  0  0  0  0  0  0  0  0  0  0  0
  1  2  1  0
  2  3  1  0
  2  4  1  0
  4  5  1  0
  6  5  1  1
  6  7  1  0
  7  8  1  0
  8  9  1  0
  9 10  1  0
 10 11  2  0
 10 12  1  0
 12 13  1  0
 13 14  2  3
 14 15  1  0
 15 16  1  0
 15 17  2  3
 17 18  1  0
 18 19  1  0
 18 20  2  3
  9 21  1  0
 21 22  1  0
  6 23  1  0
 20  6  1  0
 23 20  1  0
M  END
>  <docking_score>  (1) 
-6.2480000000000002

$$$$

     RDKit          3D

 23 24  0  0  0  0  0  0  0  0999 V2000
  137.8614  133.4660  134.0078 C   0  0  0  0  0  0  0  0  0  0  0  0
  138.9243  132.8756  133.1473 C   0  0  0  0  0  0  0  0  0  0  0  0
  139.5201  133.8353  132.1517 C   0  0  0  0  0  0  0  0  0  0  0  0
  140.0149  132.4153  134.0264 N   0  0  0  0  0  0  0  0  0  0  0  0
  140.6326  133.5940  134.5189 C   0  0  0  0  0  0  0  0  0  0  0  0
  140.9617  133.6338  135.9566 C   0  0  1  0  0  0  0  0  0  0  0  0
  141.1040  132.1670  136.5141 C   0  0  0  0  0  0  0  0  0  0  0  0
  139.8818  131.6087  137.0396 C   0  0  0  0  0  0  0  0  0  0  0  0
  139.3256  131.9612  138.2878 N   0  0  0  0  0  0  0  0  0  0  0  0
  139.9397  132.2932  139.5114 C   0  0  0  0  0  0  0  0  0  0  0  0
  139.1397  132.1629  140.5418 O   0  0  0  0  0  0  0  0  0  0  0  0
  141.2266  132.7200  139.7712 N   0  0  0  0  0  0  0  0  0  0  0  0
  141.9521  133.8504  139.4253 C   0  0  0  0  0  0  0  0  0  0  0  0
  141.5679  135.1214  139.5634 C   0  0  0  0  0  0  0  0  0  0  0  0
  142.3854  136.2414  139.1728 C   0  0  0  0  0  0  0  0  0  0  0  0
  142.5155  137.5925  140.3239 S   0  0  0  0  0  0  0  0  0  0  0  0
  142.9785  136.2097  138.0022 C   0  0  0  0  0  0  0  0  0  0  0  0
  142.8151  135.0356  137.0707 C   0  0  0  0  0  0  0  0  0  0  0  0
  144.0308  134.5861  136.6359 F   0  0  0  0  0  0  0  0  0  0  0  0
  141.6887  134.5873  136.7092 C   0  0  0  0  0  0  0  0  0  0  0  0
  137.8116  131.9243  138.2600 C   0  0  0  0  0  0  0  0  0  0  0  0
  137.3039  131.5770  136.8979 C   0  0  0  0  0  0  0  0  0  0  0  0
  140.1300  134.5004  136.8248 C   0  0  0  0  0  0  0  0  0  0  0  0
  1  2  1  0
  2  3  1  0
  2  4  1  0
  4  5  1  0
  6  5  1  6
  6  7  1  0
  7  8  1  0
  8  9  1  0
  9 10  1  0
 10 11  2  0
 10 12  1  0
 12 13  1  0
 13 14  2  3
 14 15  1  0
 15 16  1  0
 15 17  2  3
 17 18  1  0
 18 19  1  0
 18 20  2  3
  9 21  1  0
 21 22  1  0
  6 23  1  0
 20  6  1  0
 23 20  1  0
M  END
>  <docking_score>  (2) 
-6.149

$$$$

     RDKit          3D

 23 24  0  0  0  0  0  0  0  0999 V2000
  124.3231  125.7080  145.2560 C   0  0  0  0  0  0  0  0  0  0  0  0
  125.3800  125.2721  144.3011 C   0  0  0  0  0  0  0  0  0  0  0  0
  125.6562  123.7921  144.3155 C   0  0  0  0  0  0  0  0  0  0  0  0
  124.9353  125.6266  142.9407 N   0  0  0  0  0  0  0  0  0  0  0  0
  123.5498  125.9117  143.0532 C   0  0  0  0  0  0  0  0  0  0  0  0
  122.6096  124.9307  142.4783 C   0  0  1  0  0  0  0  0  0  0  0  0
  122.9875  124.6436  140.9759 C   0  0  0  0  0  0  0  0  0  0  0  0
  122.3258  125.4998  140.0215 C   0  0  0  0  0  0  0  0  0  0  0  0
  120.9737  125.3614  139.6415 N   0  0  0  0  0  0  0  0  0  0  0  0
  120.1754  124.2132  139.4720 C   0  0  0  0  0  0  0  0  0  0  0  0
  119.1155  124.4271  138.7307 O   0  0  0  0  0  0  0  0  0  0  0  0
  120.3479  122.9328  139.9585 N   0  0  0  0  0  0  0  0  0  0  0  0
  120.3693  122.3837  141.2320 C   0  0  0  0  0  0  0  0  0  0  0  0
  119.4631  122.5623  142.1960 C   0  0  0  0  0  0  0  0  0  0  0  0
  119.5641  121.9550  143.4983 C   0  0  0  0  0  0  0  0  0  0  0  0
  118.0964  121.1917  144.1545 S   0  0  0  0  0  0  0  0  0  0  0  0
  120.7158  122.0009  144.1266 C   0  0  0  0  0  0  0  0  0  0  0  0
  121.9175  122.6751  143.5148 C   0  0  0  0  0  0  0  0  0  0  0  0
  123.0094  121.8533  143.5539 F   0  0  0  0  0  0  0  0  0  0  0  0
  121.9032  123.8656  143.0870 C   0  0  0  0  0  0  0  0  0  0  0  0
  120.3332  126.7010  139.3421 C   0  0  0  0  0  0  0  0  0  0  0  0
  120.1418  127.5002  140.5904 C   0  0  0  0  0  0  0  0  0  0  0  0
  121.1609  125.1789  142.6691 C   0  0  0  0  0  0  0  0  0  0  0  0
  1  2  1  0
  2  3  1  0
  2  4  1  0
  4  5  1  0
  6  5  1  1
  6  7  1  0
  7  8  1  0
  8  9  1  0
  9 10  1  0
 10 11  2  0
 10 12  1  0
 12 13  1  0
 13 14  2  3
 14 15  1  0
 15 16  1  0
 15 17  2  3
 17 18  1  0
 18 19  1  0
 18 20  2  3
  9 21  1  0
 21 22  1  0
  6 23  1  0
 20  6  1  0
 23 20  1  0
M  END
>  <docking_score>  (3) 
-6.0140000000000002

$$$$
