
     RDKit          3D

 11 11  0  0  0  0  0  0  0  0999 V2000
  141.6856  118.6392  165.9430 O   0  0  0  0  0  0  0  0  0  0  0  0
  142.4859  119.5741  166.1089 C   0  0  0  0  0  0  0  0  0  0  0  0
  143.8820  119.3376  166.2623 N   0  0  0  0  0  0  0  0  0  0  0  0
  144.1764  118.0491  166.7879 C   0  0  0  0  0  0  0  0  0  0  0  0
  145.3575  117.4163  166.6314 C   0  0  0  0  0  0  0  0  0  0  0  0
  146.5341  117.9033  165.9171 C   0  0  0  0  0  0  0  0  0  0  0  0
  147.6463  117.2433  166.1204 C   0  0  0  0  0  0  0  0  0  0  0  0
  147.7229  116.1770  166.9347 F   0  0  0  0  0  0  0  0  0  0  0  0
  144.7246  120.4321  165.8666 C   0  0  0  0  0  0  0  0  0  0  0  0
  145.8484  120.0652  164.9863 C   0  0  0  0  0  0  0  0  0  0  0  0
  146.5757  119.0073  165.0383 N   0  0  0  0  0  0  0  0  0  0  0  0
  1  2  2  0
  2  3  1  0
  3  4  1  0
  4  5  2  0
  5  6  1  0
  6  7  2  3
  7  8  1  0
  3  9  1  0
  9 10  1  0
 10 11  2  0
 11  6  1  0
M  END
>  <docking_score>  (1) 
-2.0379999999999998

$$$$
