
     RDKit          3D

 21 23  0  0  0  0  0  0  0  0999 V2000
  138.8169  114.6722  136.6726 O   0  0  0  0  0  0  0  0  0  0  0  0
  137.9945  115.3172  135.9729 C   0  0  0  0  0  0  0  0  0  0  0  0
  137.5963  114.7035  134.7356 N   0  0  0  0  0  0  0  0  0  0  0  0
  137.1158  115.3201  133.5484 C   0  0  0  0  0  0  0  0  0  0  0  0
  137.1366  114.5094  132.4341 C   0  0  0  0  0  0  0  0  0  0  0  0
  136.7035  114.9607  131.2078 C   0  0  0  0  0  0  0  0  0  0  0  0
  136.7072  113.9776  129.7618 Cl  0  0  0  0  0  0  0  0  0  0  0  0
  136.2436  116.2541  131.1169 C   0  0  0  0  0  0  0  0  0  0  0  0
  136.2188  117.0707  132.2225 C   0  0  0  0  0  0  0  0  0  0  0  0
  135.7611  118.3463  132.1143 F   0  0  0  0  0  0  0  0  0  0  0  0
  136.6480  116.6226  133.4364 C   0  0  0  0  0  0  0  0  0  0  0  0
  137.5228  116.5728  136.4310 N   0  0  0  0  0  0  0  0  0  0  0  0
  138.2823  117.0163  137.5712 C   0  0  0  0  0  0  0  0  0  0  0  0
  137.3136  117.4234  138.6434 C   0  0  0  0  0  0  0  0  0  0  0  0
  136.3881  118.4892  138.1577 C   0  0  1  0  0  0  0  0  0  0  0  0
  136.3887  118.7045  136.6837 C   0  0  0  0  0  0  0  0  0  0  0  0
  136.4455  117.4011  135.9240 C   0  0  1  0  0  0  0  0  0  0  0  0
  136.5387  117.6445  134.4777 C   0  0  0  0  0  0  0  0  0  0  0  0
  136.5269  118.8406  134.0469 O   0  0  0  0  0  0  0  0  0  0  0  0
  135.0008  118.2016  138.7082 C   0  0  0  0  0  0  0  0  0  0  0  0
  136.9047  120.0372  138.9155 Cl  0  0  0  0  0  0  0  0  0  0  0  0
  1  2  2  0
  2  3  1  0
  3  4  1  0
  4  5  2  0
  5  6  1  0
  6  7  1  0
  6  8  2  0
  8  9  1  0
  9 10  1  0
  9 11  2  0
  2 12  1  0
 12 13  1  0
 13 14  1  0
 14 15  1  0
 15 16  1  0
 17 16  1  1
 17 18  1  0
 18 19  2  0
 15 20  1  1
 15 21  1  0
 11  4  1  0
 18 11  1  0
 17 12  1  0
M  END
>  <docking_score>  (1) 
-7.4809999999999999

$$$$

     RDKit          3D

 21 23  0  0  0  0  0  0  0  0999 V2000
  131.1295  125.4816  139.8598 O   0  0  0  0  0  0  0  0  0  0  0  0
  132.0671  125.8964  139.1312 C   0  0  0  0  0  0  0  0  0  0  0  0
  131.8821  127.1915  138.5359 N   0  0  0  0  0  0  0  0  0  0  0  0
  132.4575  127.7169  137.3470 C   0  0  0  0  0  0  0  0  0  0  0  0
  131.8363  128.8476  136.8622 C   0  0  0  0  0  0  0  0  0  0  0  0
  132.2753  129.4754  135.7185 C   0  0  0  0  0  0  0  0  0  0  0  0
  131.5267  130.9111  135.0582 Cl  0  0  0  0  0  0  0  0  0  0  0  0
  133.3607  128.9438  135.0614 C   0  0  0  0  0  0  0  0  0  0  0  0
  133.9873  127.8164  135.5367 C   0  0  0  0  0  0  0  0  0  0  0  0
  135.0587  127.3046  134.8745 F   0  0  0  0  0  0  0  0  0  0  0  0
  133.5516  127.1955  136.6695 C   0  0  0  0  0  0  0  0  0  0  0  0
  133.2160  125.0875  138.9453 N   0  0  0  0  0  0  0  0  0  0  0  0
  132.9970  123.7645  139.4703 C   0  0  0  0  0  0  0  0  0  0  0  0
  134.1635  123.4155  140.3485 C   0  0  0  0  0  0  0  0  0  0  0  0
  135.4494  123.4961  139.5946 C   0  0  1  0  0  0  0  0  0  0  0  0
  135.3679  124.1844  138.2760 C   0  0  0  0  0  0  0  0  0  0  0  0
  134.4908  125.4118  138.3343 C   0  0  1  0  0  0  0  0  0  0  0  0
  134.3530  126.0176  137.0025 C   0  0  0  0  0  0  0  0  0  0  0  0
  134.9709  125.5020  136.0184 O   0  0  0  0  0  0  0  0  0  0  0  0
  136.4999  124.1038  140.5097 C   0  0  0  0  0  0  0  0  0  0  0  0
  135.9930  121.8109  139.2756 Cl  0  0  0  0  0  0  0  0  0  0  0  0
  1  2  2  0
  2  3  1  0
  3  4  1  0
  4  5  2  0
  5  6  1  0
  6  7  1  0
  6  8  2  0
  8  9  1  0
  9 10  1  0
  9 11  2  0
  2 12  1  0
 12 13  1  0
 13 14  1  0
 14 15  1  0
 15 16  1  0
 17 16  1  6
 17 18  1  0
 18 19  2  0
 15 20  1  1
 15 21  1  0
 11  4  1  0
 18 11  1  0
 17 12  1  0
M  END
>  <docking_score>  (2) 
-7.2949999999999999

$$$$

     RDKit          3D

 21 23  0  0  0  0  0  0  0  0999 V2000
  126.4575  143.7991  145.5115 O   0  0  0  0  0  0  0  0  0  0  0  0
  127.1623  143.1520  144.6950 C   0  0  0  0  0  0  0  0  0  0  0  0
  128.0793  143.9218  143.8999 N   0  0  0  0  0  0  0  0  0  0  0  0
  128.6249  143.6179  142.6229 C   0  0  0  0  0  0  0  0  0  0  0  0
  129.2021  144.6903  141.9776 C   0  0  0  0  0  0  0  0  0  0  0  0
  129.7741  144.5579  140.7325 C   0  0  0  0  0  0  0  0  0  0  0  0
  130.5198  145.8822  139.8679 Cl  0  0  0  0  0  0  0  0  0  0  0  0
  129.7572  143.3172  140.1385 C   0  0  0  0  0  0  0  0  0  0  0  0
  129.1840  142.2413  140.7737 C   0  0  0  0  0  0  0  0  0  0  0  0
  129.1763  141.0223  140.1717 F   0  0  0  0  0  0  0  0  0  0  0  0
  128.6178  142.3737  142.0068 C   0  0  0  0  0  0  0  0  0  0  0  0
  127.0157  141.7448  144.6093 N   0  0  0  0  0  0  0  0  0  0  0  0
  125.8624  141.3074  145.3525 C   0  0  0  0  0  0  0  0  0  0  0  0
  126.2856  140.1722  146.2390 C   0  0  0  0  0  0  0  0  0  0  0  0
  126.8751  139.0562  145.4419 C   0  0  1  0  0  0  0  0  0  0  0  0
  127.2115  139.3951  144.0309 C   0  0  0  0  0  0  0  0  0  0  0  0
  127.8300  140.7673  143.9131 C   0  0  1  0  0  0  0  0  0  0  0  0
  128.0660  141.1134  142.5045 C   0  0  0  0  0  0  0  0  0  0  0  0
  127.7779  140.2675  141.6002 O   0  0  0  0  0  0  0  0  0  0  0  0
  128.0619  138.4981  146.2103 C   0  0  0  0  0  0  0  0  0  0  0  0
  125.6589  137.7314  145.3891 Cl  0  0  0  0  0  0  0  0  0  0  0  0
  1  2  2  0
  2  3  1  0
  3  4  1  0
  4  5  2  0
  5  6  1  0
  6  7  1  0
  6  8  2  0
  8  9  1  0
  9 10  1  0
  9 11  2  0
  2 12  1  0
 12 13  1  0
 13 14  1  0
 14 15  1  0
 15 16  1  0
 17 16  1  6
 17 18  1  0
 18 19  2  0
 15 20  1  1
 15 21  1  0
 11  4  1  0
 18 11  1  0
 17 12  1  0
M  END
>  <docking_score>  (3) 
-7.2519999999999998

$$$$
