
     RDKit          3D

 29 33  0  0  0  0  0  0  0  0999 V2000
  135.0748  120.7660  141.3290 O   0  0  0  0  0  0  0  0  0  0  0  0
  135.8596  121.1970  140.4267 C   0  0  0  0  0  0  0  0  0  0  0  0
  136.0462  122.5622  140.2478 N   0  0  0  0  0  0  0  0  0  0  0  0
  135.4202  123.5829  140.9986 C   0  0  1  0  0  0  0  0  0  0  0  0
  135.9118  124.9488  141.1297 C   0  0  0  0  0  0  0  0  0  0  0  0
  134.5387  124.6253  140.4524 C   0  0  1  0  0  0  0  0  0  0  0  0
  134.5661  125.0544  139.0328 C   0  0  0  0  0  0  0  0  0  0  0  0
  133.4527  125.4209  138.3176 C   0  0  0  0  0  0  0  0  0  0  0  0
  133.5479  125.7998  136.9786 C   0  0  0  0  0  0  0  0  0  0  0  0
  134.7854  125.8019  136.3834 C   0  0  0  0  0  0  0  0  0  0  0  0
  135.9017  125.4382  137.0916 C   0  0  0  0  0  0  0  0  0  0  0  0
  135.7971  125.0638  138.4132 C   0  0  0  0  0  0  0  0  0  0  0  0
  136.5287  120.2519  139.6290 N   0  0  0  0  0  0  0  0  0  0  0  0
  135.9512  119.8376  138.3627 C   0  0  0  0  0  0  0  0  0  0  0  0
  135.8106  118.3352  138.4172 C   0  0  0  0  0  0  0  0  0  0  0  0
  137.1796  117.6848  138.6206 C   0  0  0  0  0  0  0  0  0  0  0  0
  137.4636  116.8467  137.4537 C   0  0  0  0  0  0  0  0  0  0  0  0
  136.9915  117.1387  136.2209 N   0  0  0  0  0  0  0  0  0  0  0  0
  137.4264  116.1825  135.3549 C   0  0  0  0  0  0  0  0  0  0  0  0
  137.1450  116.1281  133.9164 C   0  0  0  0  0  0  0  0  0  0  0  0
  137.8239  115.2906  133.0721 C   0  0  0  0  0  0  0  0  0  0  0  0
  137.5565  115.2500  131.7187 C   0  0  0  0  0  0  0  0  0  0  0  0
  136.6005  116.0455  131.1447 C   0  0  0  0  0  0  0  0  0  0  0  0
  135.8894  116.9156  131.9809 C   0  0  0  0  0  0  0  0  0  0  0  0
  136.1787  116.9360  133.3456 C   0  0  0  0  0  0  0  0  0  0  0  0
  138.1504  115.3369  136.0944 N   0  0  0  0  0  0  0  0  0  0  0  0
  138.1567  115.7521  137.3261 O   0  0  0  0  0  0  0  0  0  0  0  0
  138.2247  118.7281  138.8699 C   0  0  0  0  0  0  0  0  0  0  0  0
  137.8113  119.6577  140.0101 C   0  0  0  0  0  0  0  0  0  0  0  0
  1  2  2  0
  2  3  1  0
  4  3  1  6
  4  5  1  0
  5  6  1  0
  6  7  1  6
  7  8  2  0
  8  9  1  0
  9 10  2  0
 10 11  1  0
 11 12  2  0
  2 13  1  0
 13 14  1  0
 14 15  1  0
 15 16  1  0
 16 17  1  0
 17 18  2  0
 18 19  1  0
 19 20  1  0
 20 21  2  0
 21 22  1  0
 22 23  2  0
 23 24  1  0
 24 25  2  0
 19 26  2  0
 26 27  1  0
 16 28  1  0
 28 29  1  0
  6  4  1  0
 12  7  1  0
 29 13  1  0
 27 17  1  0
 25 20  1  0
M  END
>  <docking_score>  (1) 
-8.5790000000000006

$$$$

     RDKit          3D

 29 33  0  0  0  0  0  0  0  0999 V2000
  133.2337  126.2449  139.1118 O   0  0  0  0  0  0  0  0  0  0  0  0
  134.1404  126.2445  140.0028 C   0  0  0  0  0  0  0  0  0  0  0  0
  134.2060  127.2660  140.9425 N   0  0  0  0  0  0  0  0  0  0  0  0
  133.3281  128.3709  141.0183 C   0  0  1  0  0  0  0  0  0  0  0  0
  132.0423  128.3745  141.7048 C   0  0  0  0  0  0  0  0  0  0  0  0
  133.2220  129.2997  142.1532 C   0  0  1  0  0  0  0  0  0  0  0  0
  133.6365  128.9507  143.5339 C   0  0  0  0  0  0  0  0  0  0  0  0
  132.9026  129.2461  144.6562 C   0  0  0  0  0  0  0  0  0  0  0  0
  133.3595  128.9020  145.9283 C   0  0  0  0  0  0  0  0  0  0  0  0
  134.5656  128.2550  146.0396 C   0  0  0  0  0  0  0  0  0  0  0  0
  135.3035  127.9557  144.9234 C   0  0  0  0  0  0  0  0  0  0  0  0
  134.8444  128.3014  143.6714 C   0  0  0  0  0  0  0  0  0  0  0  0
  135.0607  125.1813  140.0059 N   0  0  0  0  0  0  0  0  0  0  0  0
  134.8628  124.0525  139.1142 C   0  0  0  0  0  0  0  0  0  0  0  0
  134.8235  122.8147  139.9781 C   0  0  0  0  0  0  0  0  0  0  0  0
  136.1370  122.6669  140.7471 C   0  0  0  0  0  0  0  0  0  0  0  0
  136.7743  121.4178  140.3243 C   0  0  0  0  0  0  0  0  0  0  0  0
  136.3446  120.7125  139.2538 N   0  0  0  0  0  0  0  0  0  0  0  0
  137.1352  119.6128  139.1165 C   0  0  0  0  0  0  0  0  0  0  0  0
  137.0138  118.5868  138.0753 C   0  0  0  0  0  0  0  0  0  0  0  0
  136.0050  118.6037  137.1495 C   0  0  0  0  0  0  0  0  0  0  0  0
  135.8950  117.6309  136.1767 C   0  0  0  0  0  0  0  0  0  0  0  0
  136.7858  116.5944  136.0842 C   0  0  0  0  0  0  0  0  0  0  0  0
  137.8285  116.5467  137.0182 C   0  0  0  0  0  0  0  0  0  0  0  0
  137.9173  117.5433  137.9906 C   0  0  0  0  0  0  0  0  0  0  0  0
  138.0219  119.6865  140.1137 N   0  0  0  0  0  0  0  0  0  0  0  0
  137.7873  120.7594  140.8089 O   0  0  0  0  0  0  0  0  0  0  0  0
  137.0024  123.8722  140.5448 C   0  0  0  0  0  0  0  0  0  0  0  0
  136.2408  125.1559  140.8720 C   0  0  0  0  0  0  0  0  0  0  0  0
  1  2  2  0
  2  3  1  0
  4  3  1  1
  4  5  1  0
  5  6  1  0
  6  7  1  1
  7  8  2  0
  8  9  1  0
  9 10  2  0
 10 11  1  0
 11 12  2  0
  2 13  1  0
 13 14  1  0
 14 15  1  0
 15 16  1  0
 16 17  1  0
 17 18  2  0
 18 19  1  0
 19 20  1  0
 20 21  2  0
 21 22  1  0
 22 23  2  0
 23 24  1  0
 24 25  2  0
 19 26  2  0
 26 27  1  0
 16 28  1  0
 28 29  1  0
  6  4  1  0
 12  7  1  0
 29 13  1  0
 27 17  1  0
 25 20  1  0
M  END
>  <docking_score>  (2) 
-8.4920000000000009

$$$$

     RDKit          3D

 29 33  0  0  0  0  0  0  0  0999 V2000
  138.7478  117.7423  138.7009 O   0  0  0  0  0  0  0  0  0  0  0  0
  137.6605  118.2256  138.2540 C   0  0  0  0  0  0  0  0  0  0  0  0
  136.8648  119.0330  139.0575 N   0  0  0  0  0  0  0  0  0  0  0  0
  137.1452  119.3930  140.3951 C   0  0  1  0  0  0  0  0  0  0  0  0
  137.8404  120.6055  140.8088 C   0  0  0  0  0  0  0  0  0  0  0  0
  136.3543  120.3259  141.2112 C   0  0  1  0  0  0  0  0  0  0  0  0
  135.4731  121.3695  140.6329 C   0  0  0  0  0  0  0  0  0  0  0  0
  134.1528  121.1711  140.3117 C   0  0  0  0  0  0  0  0  0  0  0  0
  133.3842  122.1935  139.7554 C   0  0  0  0  0  0  0  0  0  0  0  0
  133.9753  123.4131  139.5345 C   0  0  0  0  0  0  0  0  0  0  0  0
  135.2928  123.6189  139.8538 C   0  0  0  0  0  0  0  0  0  0  0  0
  136.0441  122.6022  140.4011 C   0  0  0  0  0  0  0  0  0  0  0  0
  137.2992  117.9211  136.9295 N   0  0  0  0  0  0  0  0  0  0  0  0
  138.1116  117.0018  136.1528 C   0  0  0  0  0  0  0  0  0  0  0  0
  138.5288  117.7371  134.9016 C   0  0  0  0  0  0  0  0  0  0  0  0
  137.2951  118.1660  134.1063 C   0  0  0  0  0  0  0  0  0  0  0  0
  137.3378  117.4975  132.8039 C   0  0  0  0  0  0  0  0  0  0  0  0
  136.8218  116.2634  132.6067 N   0  0  0  0  0  0  0  0  0  0  0  0
  137.0104  115.9205  131.3028 C   0  0  0  0  0  0  0  0  0  0  0  0
  136.5918  114.6647  130.6711 C   0  0  0  0  0  0  0  0  0  0  0  0
  137.0455  114.2831  129.4368 C   0  0  0  0  0  0  0  0  0  0  0  0
  136.6418  113.1022  128.8473 C   0  0  0  0  0  0  0  0  0  0  0  0
  135.7645  112.2483  129.4617 C   0  0  0  0  0  0  0  0  0  0  0  0
  135.2797  112.6108  130.7248 C   0  0  0  0  0  0  0  0  0  0  0  0
  135.7047  113.8094  131.2986 C   0  0  0  0  0  0  0  0  0  0  0  0
  137.6388  116.9621  130.7493 N   0  0  0  0  0  0  0  0  0  0  0  0
  137.8183  117.8769  131.6551 O   0  0  0  0  0  0  0  0  0  0  0  0
  136.0456  117.8781  134.8799 C   0  0  0  0  0  0  0  0  0  0  0  0
  136.1147  118.4857  136.2803 C   0  0  0  0  0  0  0  0  0  0  0  0
  1  2  2  0
  2  3  1  0
  4  3  1  6
  4  5  1  0
  5  6  1  0
  6  7  1  6
  7  8  2  0
  8  9  1  0
  9 10  2  0
 10 11  1  0
 11 12  2  0
  2 13  1  0
 13 14  1  0
 14 15  1  0
 15 16  1  0
 16 17  1  0
 17 18  2  0
 18 19  1  0
 19 20  1  0
 20 21  2  0
 21 22  1  0
 22 23  2  0
 23 24  1  0
 24 25  2  0
 19 26  2  0
 26 27  1  0
 16 28  1  0
 28 29  1  0
  6  4  1  0
 12  7  1  0
 29 13  1  0
 27 17  1  0
 25 20  1  0
M  END
>  <docking_score>  (3) 
-8.3320000000000007

$$$$
