
     RDKit          3D

 27 30  0  0  0  0  0  0  0  0999 V2000
  139.1073  131.4606  137.4846 O   0  0  0  0  0  0  0  0  0  0  0  0
  139.5384  132.2109  138.4246 C   0  0  0  0  0  0  0  0  0  0  0  0
  140.5375  133.1361  138.0126 N   0  0  0  0  0  0  0  0  0  0  0  0
  141.0309  133.2302  136.6608 C   0  0  2  0  0  0  0  0  0  0  0  0
  141.7965  134.3534  136.1348 C   0  0  0  0  0  0  0  0  0  0  0  0
  140.3472  134.4102  135.9062 C   0  0  1  0  0  0  0  0  0  0  0  0
  139.6863  133.9938  134.6691 C   0  0  0  0  0  0  0  0  0  0  0  0
  140.3992  134.1819  133.4874 C   0  0  0  0  0  0  0  0  0  0  0  0
  139.8803  133.8282  132.2653 C   0  0  0  0  0  0  0  0  0  0  0  0
  138.6169  133.2695  132.1940 C   0  0  0  0  0  0  0  0  0  0  0  0
  137.9330  133.0944  133.3830 C   0  0  0  0  0  0  0  0  0  0  0  0
  138.4343  133.4402  134.6033 C   0  0  0  0  0  0  0  0  0  0  0  0
  139.0693  132.1297  139.7508 N   0  0  0  0  0  0  0  0  0  0  0  0
  139.3835  133.2335  140.6572 C   0  0  0  0  0  0  0  0  0  0  0  0
  138.4711  133.2110  141.8724 C   0  0  0  0  0  0  0  0  0  0  0  0
  137.0436  132.9766  141.5025 C   0  0  0  0  0  0  0  0  0  0  0  0
  136.3322  131.9819  142.2938 C   0  0  0  0  0  0  0  0  0  0  0  0
  136.7671  130.8563  142.7106 N   0  0  0  0  0  0  0  0  0  0  0  0
  138.0391  130.3118  142.5041 C   0  0  0  0  0  0  0  0  0  0  0  0
  138.6100  129.5432  143.6431 C   0  0  0  0  0  0  0  0  0  0  0  0
  139.9537  129.3743  143.8286 C   0  0  0  0  0  0  0  0  0  0  0  0
  140.4629  128.6582  144.8960 C   0  0  0  0  0  0  0  0  0  0  0  0
  139.5956  128.0912  145.8077 C   0  0  0  0  0  0  0  0  0  0  0  0
  138.2472  128.2798  145.5926 C   0  0  0  0  0  0  0  0  0  0  0  0
  137.7853  128.9789  144.5498 N   0  0  0  0  0  0  0  0  0  0  0  0
  138.6910  130.4459  141.4249 N   0  0  0  0  0  0  0  0  0  0  0  0
  138.3385  131.1031  140.2900 O   0  0  0  0  0  0  0  0  0  0  0  0
  1  2  2  0
  2  3  1  0
  4  3  1  1
  4  5  1  0
  5  6  1  0
  6  7  1  6
  7  8  2  0
  8  9  1  0
  9 10  2  0
 10 11  1  0
 11 12  2  0
  2 13  1  0
 13 14  1  0
 14 15  1  0
 15 16  1  0
 16 17  1  0
 17 18  2  3
 18 19  1  0
 19 20  1  0
 20 21  2  0
 21 22  1  0
 22 23  2  0
 23 24  1  0
 24 25  2  0
 19 26  2  3
 26 27  1  0
  6  4  1  0
 12  7  1  0
 27 13  1  0
 25 20  1  0
M  END
>  <docking_score>  (1) 
-8.1289999999999996

$$$$

     RDKit          3D

 27 30  0  0  0  0  0  0  0  0999 V2000
  133.0092  127.2208  141.8622 O   0  0  0  0  0  0  0  0  0  0  0  0
  131.9741  126.5014  141.6541 C   0  0  0  0  0  0  0  0  0  0  0  0
  132.2562  125.2453  141.0487 N   0  0  0  0  0  0  0  0  0  0  0  0
  133.5843  124.8093  140.6943 C   0  0  2  0  0  0  0  0  0  0  0  0
  134.2561  125.1337  139.4422 C   0  0  0  0  0  0  0  0  0  0  0  0
  133.5397  123.8523  139.4649 C   0  0  1  0  0  0  0  0  0  0  0  0
  134.1674  122.5563  139.7239 C   0  0  0  0  0  0  0  0  0  0  0  0
  135.5261  122.4527  139.4351 C   0  0  0  0  0  0  0  0  0  0  0  0
  136.2219  121.2854  139.6381 C   0  0  0  0  0  0  0  0  0  0  0  0
  135.5662  120.1767  140.1424 C   0  0  0  0  0  0  0  0  0  0  0  0
  134.2181  120.3091  140.4201 C   0  0  0  0  0  0  0  0  0  0  0  0
  133.5137  121.4604  140.2240 C   0  0  0  0  0  0  0  0  0  0  0  0
  130.6696  126.9138  141.9915 N   0  0  0  0  0  0  0  0  0  0  0  0
  130.5122  127.8366  143.1150 C   0  0  0  0  0  0  0  0  0  0  0  0
  129.1492  128.5078  143.0758 C   0  0  0  0  0  0  0  0  0  0  0  0
  128.7938  128.9847  141.7063 C   0  0  0  0  0  0  0  0  0  0  0  0
  127.4503  128.6627  141.2447 C   0  0  0  0  0  0  0  0  0  0  0  0
  126.8089  127.5705  141.4040 N   0  0  0  0  0  0  0  0  0  0  0  0
  127.2496  126.4193  142.0656 C   0  0  0  0  0  0  0  0  0  0  0  0
  126.2192  125.6845  142.8482 C   0  0  0  0  0  0  0  0  0  0  0  0
  126.5262  124.8603  143.8946 C   0  0  0  0  0  0  0  0  0  0  0  0
  125.5523  124.1889  144.6102 C   0  0  0  0  0  0  0  0  0  0  0  0
  124.2256  124.3484  144.2644 C   0  0  0  0  0  0  0  0  0  0  0  0
  123.9493  125.1861  143.2052 C   0  0  0  0  0  0  0  0  0  0  0  0
  124.9147  125.8225  142.5324 N   0  0  0  0  0  0  0  0  0  0  0  0
  128.4456  126.0007  142.0204 N   0  0  0  0  0  0  0  0  0  0  0  0
  129.5117  126.5300  141.3666 O   0  0  0  0  0  0  0  0  0  0  0  0
  1  2  2  0
  2  3  1  0
  4  3  1  6
  4  5  1  0
  5  6  1  0
  6  7  1  1
  7  8  2  0
  8  9  1  0
  9 10  2  0
 10 11  1  0
 11 12  2  0
  2 13  1  0
 13 14  1  0
 14 15  1  0
 15 16  1  0
 16 17  1  0
 17 18  2  3
 18 19  1  0
 19 20  1  0
 20 21  2  0
 21 22  1  0
 22 23  2  0
 23 24  1  0
 24 25  2  0
 19 26  2  3
 26 27  1  0
  6  4  1  0
 12  7  1  0
 27 13  1  0
 25 20  1  0
M  END
>  <docking_score>  (2) 
-8.0990000000000002

$$$$

     RDKit          3D

 27 30  0  0  0  0  0  0  0  0999 V2000
  128.6800  125.2739  143.8742 O   0  0  0  0  0  0  0  0  0  0  0  0
  127.7639  125.6783  143.0807 C   0  0  0  0  0  0  0  0  0  0  0  0
  128.2425  126.4798  142.0072 N   0  0  0  0  0  0  0  0  0  0  0  0
  129.6322  126.8158  141.8185 C   0  0  2  0  0  0  0  0  0  0  0  0
  130.1207  127.8304  140.8931 C   0  0  0  0  0  0  0  0  0  0  0  0
  130.0938  126.4574  140.3736 C   0  0  1  0  0  0  0  0  0  0  0  0
  131.2480  125.5586  140.3467 C   0  0  0  0  0  0  0  0  0  0  0  0
  131.0246  124.2709  139.8652 C   0  0  0  0  0  0  0  0  0  0  0  0
  132.0330  123.3405  139.7926 C   0  0  0  0  0  0  0  0  0  0  0  0
  133.3087  123.6802  140.2062 C   0  0  0  0  0  0  0  0  0  0  0  0
  133.5007  124.9654  140.6790 C   0  0  0  0  0  0  0  0  0  0  0  0
  132.5103  125.8998  140.7572 C   0  0  0  0  0  0  0  0  0  0  0  0
  126.4017  125.3616  143.2526 N   0  0  0  0  0  0  0  0  0  0  0  0
  126.0699  124.1307  143.9690 C   0  0  0  0  0  0  0  0  0  0  0  0
  124.6256  124.1533  144.4415 C   0  0  0  0  0  0  0  0  0  0  0  0
  124.2542  125.4604  145.0602 C   0  0  0  0  0  0  0  0  0  0  0  0
  122.9902  126.0388  144.6250 C   0  0  0  0  0  0  0  0  0  0  0  0
  122.5104  126.0712  143.4424 N   0  0  0  0  0  0  0  0  0  0  0  0
  123.0907  125.5535  142.2794 C   0  0  0  0  0  0  0  0  0  0  0  0
  122.1513  124.9420  141.3009 C   0  0  0  0  0  0  0  0  0  0  0  0
  120.8974  124.5154  141.6387 C   0  0  0  0  0  0  0  0  0  0  0  0
  120.0394  123.9521  140.7124 C   0  0  0  0  0  0  0  0  0  0  0  0
  120.4529  123.8108  139.4032 C   0  0  0  0  0  0  0  0  0  0  0  0
  121.7223  124.2507  139.0948 C   0  0  0  0  0  0  0  0  0  0  0  0
  122.5292  124.7924  140.0142 N   0  0  0  0  0  0  0  0  0  0  0  0
  124.3359  125.5884  142.0434 N   0  0  0  0  0  0  0  0  0  0  0  0
  125.3361  126.0995  142.8068 O   0  0  0  0  0  0  0  0  0  0  0  0
  1  2  2  0
  2  3  1  0
  4  3  1  6
  4  5  1  0
  5  6  1  0
  6  7  1  1
  7  8  2  0
  8  9  1  0
  9 10  2  0
 10 11  1  0
 11 12  2  0
  2 13  1  0
 13 14  1  0
 14 15  1  0
 15 16  1  0
 16 17  1  0
 17 18  2  3
 18 19  1  0
 19 20  1  0
 20 21  2  0
 21 22  1  0
 22 23  2  0
 23 24  1  0
 24 25  2  0
 19 26  2  3
 26 27  1  0
  6  4  1  0
 12  7  1  0
 27 13  1  0
 25 20  1  0
M  END
>  <docking_score>  (3) 
-7.8979999999999997

$$$$
