
     RDKit          3D

 26 28  0  0  0  0  0  0  0  0999 V2000
  134.8749  126.0510  141.4321 O   0  0  0  0  0  0  0  0  0  0  0  0
  132.9085  125.0935  141.1945 C   0  0  0  0  0  0  0  0  0  0  0  0
  132.8170  124.5693  140.4779 N   0  0  0  0  0  0  0  0  0  0  0  0
  132.1790  123.7332  139.6277 C   0  0  0  0  0  0  0  0  0  0  0  0
  131.1693  124.0476  140.6915 C   0  0  0  0  0  0  0  0  0  0  0  0
  131.3230  124.9285  141.8958 C   0  0  0  0  0  0  0  0  0  0  0  0
  132.5243  125.7125  142.3339 C   0  0  0  0  0  0  0  0  0  0  0  0
  133.8688  125.8094  141.6757 O   0  0  0  0  0  0  0  0  0  0  0  0
  134.3439  125.1460  140.4170 C   0  0  0  0  0  0  0  0  0  0  0  0
  135.2684  125.4772  140.3535 F   0  0  0  0  0  0  0  0  0  0  0  0
  133.5919  124.2221  139.5056 C   0  0  0  0  0  0  0  0  0  0  0  0
  134.5878  124.4057  139.1827 C   0  0  0  0  0  0  0  0  0  0  0  0
  134.7160  125.2835  137.9732 C   0  0  0  0  0  0  0  0  0  0  0  0
  133.4939  125.6704  137.1943 C   0  0  0  0  0  0  0  0  0  0  0  0
  133.6221  126.5482  135.9847 C   0  0  0  0  0  0  0  0  0  0  0  0
  134.9724  127.0391  135.5539 C   0  0  0  0  0  0  0  0  0  0  0  0
  136.1946  126.6522  136.3328 C   0  0  0  0  0  0  0  0  0  0  0  0
  136.0665  125.7744  137.5424 N   0  0  0  0  0  0  0  0  0  0  0  0
  135.6669  123.4164  139.5092 C   0  0  0  0  0  0  0  0  0  0  0  0
  135.3323  122.1627  140.2618 C   0  0  0  0  0  0  0  0  0  0  0  0
  135.1311  120.8742  139.5206 C   0  0  0  0  0  0  0  0  0  0  0  0
  136.2705  119.9104  139.3691 N   0  0  0  0  0  0  0  0  0  0  0  0
  137.6435  120.2929  139.8363 C   0  0  0  0  0  0  0  0  0  0  0  0
  138.4204  119.3641  140.7217 Cl  0  0  0  0  0  0  0  0  0  0  0  0
  136.0367  118.5641  138.7504 C   0  0  0  0  0  0  0  0  0  0  0  0
  135.6236  117.4056  139.6091 F   0  0  0  0  0  0  0  0  0  0  0  0
  1  2  2  0
  2  3  1  0
  3  4  1  0
  4  5  2  0
  5  6  1  0
  6  7  2  0
  7  8  1  0
  8  9  1  0
  9 10  1  0
  9 11  2  0
  3 12  1  0
 12 13  1  0
 13 14  2  0
 14 15  1  0
 15 16  2  0
 16 17  1  0
 17 18  2  0
 12 19  1  0
 19 20  1  0
 20 21  1  0
 21 22  1  0
 22 23  1  0
 23 24  1  0
 22 25  1  0
 25 26  1  0
  7  2  1  0
 11  4  1  0
 18 13  1  0
M  END
>  <docking_score>  (1) 
-7.0579999999999998

$$$$

     RDKit          3D

 26 28  0  0  0  0  0  0  0  0999 V2000
  139.1156  118.6629  133.9927 O   0  0  0  0  0  0  0  0  0  0  0  0
  137.2094  117.8969  133.2052 C   0  0  0  0  0  0  0  0  0  0  0  0
  136.7303  117.3975  133.7689 N   0  0  0  0  0  0  0  0  0  0  0  0
  135.6841  116.6408  134.1711 C   0  0  0  0  0  0  0  0  0  0  0  0
  135.3615  117.0270  132.7580 C   0  0  0  0  0  0  0  0  0  0  0  0
  136.1667  117.8663  131.8108 C   0  0  0  0  0  0  0  0  0  0  0  0
  137.4933  118.5268  132.0427 C   0  0  0  0  0  0  0  0  0  0  0  0
  138.3425  118.5111  133.2791 O   0  0  0  0  0  0  0  0  0  0  0  0
  138.0746  117.8309  134.5891 C   0  0  0  0  0  0  0  0  0  0  0  0
  138.8739  118.0759  135.1083 F   0  0  0  0  0  0  0  0  0  0  0  0
  136.8916  116.9987  134.9859 C   0  0  0  0  0  0  0  0  0  0  0  0
  137.6117  117.0952  135.7619 C   0  0  0  0  0  0  0  0  0  0  0  0
  137.0534  117.8251  136.9474 C   0  0  0  0  0  0  0  0  0  0  0  0
  136.7740  119.2962  136.8590 C   0  0  0  0  0  0  0  0  0  0  0  0
  136.2157  120.0261  138.0446 C   0  0  0  0  0  0  0  0  0  0  0  0
  135.9368  119.2849  139.3185 C   0  0  0  0  0  0  0  0  0  0  0  0
  136.2161  117.8138  139.4069 C   0  0  0  0  0  0  0  0  0  0  0  0
  136.7745  117.0838  138.2213 N   0  0  0  0  0  0  0  0  0  0  0  0
  138.7710  116.1592  135.9351 C   0  0  0  0  0  0  0  0  0  0  0  0
  138.8634  114.9172  135.0991 C   0  0  0  0  0  0  0  0  0  0  0  0
  138.4610  113.5926  135.6768 C   0  0  0  0  0  0  0  0  0  0  0  0
  139.4344  112.8098  136.5073 N   0  0  0  0  0  0  0  0  0  0  0  0
  140.2429  111.7130  135.8803 C   0  0  0  0  0  0  0  0  0  0  0  0
  140.9411  110.7069  136.7465 Cl  0  0  0  0  0  0  0  0  0  0  0  0
  139.5991  113.1238  137.9647 C   0  0  0  0  0  0  0  0  0  0  0  0
  138.8536  114.2747  138.5728 F   0  0  0  0  0  0  0  0  0  0  0  0
  1  2  2  0
  2  3  1  0
  3  4  1  0
  4  5  2  0
  5  6  1  0
  6  7  2  0
  7  8  1  0
  8  9  1  0
  9 10  1  0
  9 11  2  0
  3 12  1  0
 12 13  1  0
 13 14  2  0
 14 15  1  0
 15 16  2  0
 16 17  1  0
 17 18  2  0
 12 19  1  0
 19 20  1  0
 20 21  1  0
 21 22  1  0
 22 23  1  0
 23 24  1  0
 22 25  1  0
 25 26  1  0
  7  2  1  0
 11  4  1  0
 18 13  1  0
M  END
>  <docking_score>  (2) 
-6.8380000000000001

$$$$

     RDKit          3D

 26 28  0  0  0  0  0  0  0  0999 V2000
  133.3769  125.8159  142.7434 O   0  0  0  0  0  0  0  0  0  0  0  0
  131.3000  125.2087  142.3458 C   0  0  0  0  0  0  0  0  0  0  0  0
  131.1381  124.8966  141.5253 N   0  0  0  0  0  0  0  0  0  0  0  0
  130.3928  124.3887  140.5177 C   0  0  0  0  0  0  0  0  0  0  0  0
  129.4361  124.5538  141.6612 C   0  0  0  0  0  0  0  0  0  0  0  0
  129.7083  125.0782  143.0399 C   0  0  0  0  0  0  0  0  0  0  0  0
  131.0041  125.5670  143.6158 C   0  0  0  0  0  0  0  0  0  0  0  0
  132.3481  125.6521  142.9550 O   0  0  0  0  0  0  0  0  0  0  0  0
  132.7280  125.2694  141.5552 C   0  0  0  0  0  0  0  0  0  0  0  0
  133.6883  125.4844  141.5431 F   0  0  0  0  0  0  0  0  0  0  0  0
  131.8578  124.7072  140.4706 C   0  0  0  0  0  0  0  0  0  0  0  0
  132.8687  124.8364  140.1682 C   0  0  0  0  0  0  0  0  0  0  0  0
  133.6736  123.5778  140.0347 C   0  0  0  0  0  0  0  0  0  0  0  0
  133.0345  122.2470  140.3004 C   0  0  0  0  0  0  0  0  0  0  0  0
  133.8395  120.9884  140.1668 C   0  0  0  0  0  0  0  0  0  0  0  0
  135.2836  121.0604  139.7676 C   0  0  0  0  0  0  0  0  0  0  0  0
  135.9227  122.3912  139.5020 C   0  0  0  0  0  0  0  0  0  0  0  0
  135.1178  123.6499  139.6355 N   0  0  0  0  0  0  0  0  0  0  0  0
  133.2435  126.0540  139.3765 C   0  0  0  0  0  0  0  0  0  0  0  0
  132.4103  126.4698  138.2006 C   0  0  0  0  0  0  0  0  0  0  0  0
  131.9288  127.8858  138.0856 C   0  0  0  0  0  0  0  0  0  0  0  0
  132.1507  128.6527  136.8157 N   0  0  0  0  0  0  0  0  0  0  0  0
  133.5220  128.7235  136.2122 C   0  0  0  0  0  0  0  0  0  0  0  0
  133.7582  128.2063  134.8241 Cl  0  0  0  0  0  0  0  0  0  0  0  0
  131.0011  129.3487  136.1494 C   0  0  0  0  0  0  0  0  0  0  0  0
  129.6027  128.8424  136.3449 F   0  0  0  0  0  0  0  0  0  0  0  0
  1  2  2  0
  2  3  1  0
  3  4  1  0
  4  5  2  0
  5  6  1  0
  6  7  2  0
  7  8  1  0
  8  9  1  0
  9 10  1  0
  9 11  2  0
  3 12  1  0
 12 13  1  0
 13 14  2  0
 14 15  1  0
 15 16  2  0
 16 17  1  0
 17 18  2  0
 12 19  1  0
 19 20  1  0
 20 21  1  0
 21 22  1  0
 22 23  1  0
 23 24  1  0
 22 25  1  0
 25 26  1  0
  7  2  1  0
 11  4  1  0
 18 13  1  0
M  END
>  <docking_score>  (3) 
-6.5709999999999997

$$$$
