
     RDKit          3D

 27 30  0  0  0  0  0  0  0  0999 V2000
  133.4911  125.2642  137.0738 O   0  0  0  0  0  0  0  0  0  0  0  0
  133.3095  125.4388  138.3061 C   0  0  0  0  0  0  0  0  0  0  0  0
  133.2200  124.6214  139.4498 N   0  0  0  0  0  0  0  0  0  0  0  0
  133.8292  123.4190  139.8362 C   0  0  0  0  0  0  0  0  0  0  0  0
  133.0644  122.2608  140.0195 C   0  0  0  0  0  0  0  0  0  0  0  0
  133.5949  121.0520  140.3917 C   0  0  0  0  0  0  0  0  0  0  0  0
  134.9530  120.9628  140.5991 C   0  0  0  0  0  0  0  0  0  0  0  0
  135.5333  119.7698  140.9753 F   0  0  0  0  0  0  0  0  0  0  0  0
  135.7334  122.0855  140.4269 C   0  0  0  0  0  0  0  0  0  0  0  0
  137.4658  121.9132  140.7046 Cl  0  0  0  0  0  0  0  0  0  0  0  0
  135.1776  123.2784  140.0551 C   0  0  0  0  0  0  0  0  0  0  0  0
  132.2771  125.5389  139.9952 C   0  0  1  0  0  0  0  0  0  0  0  0
  132.2236  125.7124  141.4406 C   0  0  0  0  0  0  0  0  0  0  0  0
  131.3418  124.9830  142.1885 C   0  0  0  0  0  0  0  0  0  0  0  0
  131.2657  125.1313  143.5476 C   0  0  0  0  0  0  0  0  0  0  0  0
  132.0994  126.0378  144.1685 C   0  0  0  0  0  0  0  0  0  0  0  0
  132.9861  126.7648  143.3824 C   0  0  0  0  0  0  0  0  0  0  0  0
  133.0270  126.5864  142.0471 N   0  0  0  0  0  0  0  0  0  0  0  0
  133.0891  126.5959  139.2471 C   0  0  2  0  0  0  0  0  0  0  0  0
  132.1758  127.6394  138.6439 C   0  0  0  0  0  0  0  0  0  0  0  0
  132.6919  129.0213  139.0376 C   0  0  0  0  0  0  0  0  0  0  0  0
  131.7731  129.5659  140.0258 N   0  0  0  0  0  0  0  0  0  0  0  0
  130.5312  128.9573  139.8860 N   0  0  0  0  0  0  0  0  0  0  0  0
  130.5889  127.6589  140.3492 O   0  0  0  0  0  0  0  0  0  0  0  0
  130.1587  126.5860  139.5846 C   0  0  0  0  0  0  0  0  0  0  0  0
  130.9406  125.5504  139.3919 C   0  0  0  0  0  0  0  0  0  0  0  0
  130.5074  124.5234  138.6485 F   0  0  0  0  0  0  0  0  0  0  0  0
  1  2  2  0
  2  3  1  0
  3  4  1  0
  4  5  2  0
  5  6  1  0
  6  7  2  0
  7  8  1  0
  7  9  1  0
  9 10  1  0
  9 11  2  0
  3 12  1  0
 12 13  1  1
 13 14  2  0
 14 15  1  0
 15 16  2  0
 16 17  1  0
 17 18  2  0
 12 19  1  0
 19 20  1  6
 20 21  1  0
 21 22  1  0
 22 23  1  0
 23 24  1  0
 24 25  1  0
 25 26  2  3
 26 27  1  0
 19  2  1  0
 11  4  1  0
 26 12  1  0
 18 13  1  0
M  END
>  <docking_score>  (1) 
-7.5830000000000002

$$$$

     RDKit          3D

 27 30  0  0  0  0  0  0  0  0999 V2000
  147.1887  136.4964  136.3459 O   0  0  0  0  0  0  0  0  0  0  0  0
  146.3561  136.4543  137.2878 C   0  0  0  0  0  0  0  0  0  0  0  0
  144.9595  136.3163  137.4092 N   0  0  0  0  0  0  0  0  0  0  0  0
  143.9838  135.6207  136.6809 C   0  0  0  0  0  0  0  0  0  0  0  0
  144.1251  135.4335  135.3007 C   0  0  0  0  0  0  0  0  0  0  0  0
  143.2130  134.7603  134.5288 C   0  0  0  0  0  0  0  0  0  0  0  0
  142.0936  134.2364  135.1354 C   0  0  0  0  0  0  0  0  0  0  0  0
  141.1474  133.5522  134.4018 F   0  0  0  0  0  0  0  0  0  0  0  0
  141.9254  134.4039  136.4929 C   0  0  0  0  0  0  0  0  0  0  0  0
  140.4748  133.7113  137.2168 Cl  0  0  0  0  0  0  0  0  0  0  0  0
  142.8514  135.0799  137.2384 C   0  0  0  0  0  0  0  0  0  0  0  0
  145.0050  137.1640  138.5527 C   0  0  1  0  0  0  0  0  0  0  0  0
  144.0325  136.9573  139.6174 C   0  0  0  0  0  0  0  0  0  0  0  0
  144.2908  136.0651  140.6207 C   0  0  0  0  0  0  0  0  0  0  0  0
  143.3913  135.8462  141.6297 C   0  0  0  0  0  0  0  0  0  0  0  0
  142.2017  136.5441  141.6273 C   0  0  0  0  0  0  0  0  0  0  0  0
  141.9670  137.4450  140.5948 C   0  0  0  0  0  0  0  0  0  0  0  0
  142.8810  137.6289  139.6214 N   0  0  0  0  0  0  0  0  0  0  0  0
  146.3725  136.5251  138.7936 C   0  0  2  0  0  0  0  0  0  0  0  0
  147.3602  137.5556  139.2930 C   0  0  0  0  0  0  0  0  0  0  0  0
  148.0427  137.0067  140.5437 C   0  0  0  0  0  0  0  0  0  0  0  0
  147.5198  137.7420  141.6853 N   0  0  0  0  0  0  0  0  0  0  0  0
  147.0396  138.9751  141.2594 N   0  0  0  0  0  0  0  0  0  0  0  0
  145.8603  138.8056  140.5636 O   0  0  0  0  0  0  0  0  0  0  0  0
  145.6679  139.3442  139.3012 C   0  0  0  0  0  0  0  0  0  0  0  0
  145.2584  138.5879  138.3106 C   0  0  0  0  0  0  0  0  0  0  0  0
  145.0795  139.1266  137.0969 F   0  0  0  0  0  0  0  0  0  0  0  0
  1  2  2  0
  2  3  1  0
  3  4  1  0
  4  5  2  0
  5  6  1  0
  6  7  2  0
  7  8  1  0
  7  9  1  0
  9 10  1  0
  9 11  2  0
  3 12  1  0
 12 13  1  1
 13 14  2  0
 14 15  1  0
 15 16  2  0
 16 17  1  0
 17 18  2  0
 12 19  1  0
 19 20  1  6
 20 21  1  0
 21 22  1  0
 22 23  1  0
 23 24  1  0
 24 25  1  0
 25 26  2  3
 26 27  1  0
 19  2  1  0
 11  4  1  0
 26 12  1  0
 18 13  1  0
M  END
>  <docking_score>  (2) 
-7.5140000000000002

$$$$

     RDKit          3D

 27 30  0  0  0  0  0  0  0  0999 V2000
  142.7514  134.6296  136.4998 O   0  0  0  0  0  0  0  0  0  0  0  0
  141.6061  134.1199  136.6024 C   0  0  0  0  0  0  0  0  0  0  0  0
  140.9046  133.3739  137.5697 N   0  0  0  0  0  0  0  0  0  0  0  0
  140.9013  133.3583  138.9719 C   0  0  0  0  0  0  0  0  0  0  0  0
  141.4324  132.2689  139.6724 C   0  0  0  0  0  0  0  0  0  0  0  0
  141.4656  132.1900  141.0413 C   0  0  0  0  0  0  0  0  0  0  0  0
  140.9505  133.2345  141.7754 C   0  0  0  0  0  0  0  0  0  0  0  0
  140.9600  133.2015  143.1540 F   0  0  0  0  0  0  0  0  0  0  0  0
  140.4201  134.3217  141.1151 C   0  0  0  0  0  0  0  0  0  0  0  0
  139.7758  135.6303  142.1051 Cl  0  0  0  0  0  0  0  0  0  0  0  0
  140.4001  134.3738  139.7487 C   0  0  0  0  0  0  0  0  0  0  0  0
  140.2398  132.6866  136.5143 C   0  0  1  0  0  0  0  0  0  0  0  0
  138.8780  132.2175  136.7321 C   0  0  0  0  0  0  0  0  0  0  0  0
  138.6484  131.0961  137.4797 C   0  0  0  0  0  0  0  0  0  0  0  0
  137.3792  130.6292  137.6943 C   0  0  0  0  0  0  0  0  0  0  0  0
  136.3145  131.3097  137.1414 C   0  0  0  0  0  0  0  0  0  0  0  0
  136.5785  132.4469  136.3866 C   0  0  0  0  0  0  0  0  0  0  0  0
  137.8444  132.8708  136.2010 N   0  0  0  0  0  0  0  0  0  0  0  0
  140.3537  134.0166  135.7696 C   0  0  2  0  0  0  0  0  0  0  0  0
  140.6721  133.7828  134.3098 C   0  0  0  0  0  0  0  0  0  0  0  0
  139.6866  134.5857  133.4641 C   0  0  0  0  0  0  0  0  0  0  0  0
  138.7606  133.6413  132.8575 N   0  0  0  0  0  0  0  0  0  0  0  0
  139.3584  132.3883  132.7887 N   0  0  0  0  0  0  0  0  0  0  0  0
  139.4282  131.8306  134.0489 O   0  0  0  0  0  0  0  0  0  0  0  0
  140.6134  131.3348  134.5686 C   0  0  0  0  0  0  0  0  0  0  0  0
  141.0359  131.7222  135.7486 C   0  0  0  0  0  0  0  0  0  0  0  0
  142.1850  131.2327  136.2335 F   0  0  0  0  0  0  0  0  0  0  0  0
  1  2  2  0
  2  3  1  0
  3  4  1  0
  4  5  2  0
  5  6  1  0
  6  7  2  0
  7  8  1  0
  7  9  1  0
  9 10  1  0
  9 11  2  0
  3 12  1  0
 12 13  1  1
 13 14  2  0
 14 15  1  0
 15 16  2  0
 16 17  1  0
 17 18  2  0
 12 19  1  0
 19 20  1  6
 20 21  1  0
 21 22  1  0
 22 23  1  0
 23 24  1  0
 24 25  1  0
 25 26  2  3
 26 27  1  0
 19  2  1  0
 11  4  1  0
 26 12  1  0
 18 13  1  0
M  END
>  <docking_score>  (3) 
-7.4729999999999999

$$$$
