
     RDKit          3D

 25 28  0  0  0  0  0  0  0  0999 V2000
  126.9047  124.6944  144.5060 O   0  0  0  0  0  0  0  0  0  0  0  0
  126.5507  125.0819  143.3861 C   0  0  0  0  0  0  0  0  0  0  0  0
  127.5457  125.2204  142.3435 N   0  0  0  0  0  0  0  0  0  0  0  0
  128.9043  124.8931  142.6837 C   0  0  1  0  0  0  0  0  0  0  0  0
  129.7278  124.1245  141.7007 C   0  0  0  0  0  0  0  0  0  0  0  0
  130.0593  125.5597  142.0906 C   0  0  1  0  0  0  0  0  0  0  0  0
  129.9514  126.5797  141.0160 C   0  0  0  0  0  0  0  0  0  0  0  0
  130.4858  126.3526  139.7646 C   0  0  0  0  0  0  0  0  0  0  0  0
  130.3837  127.3072  138.7625 C   0  0  0  0  0  0  0  0  0  0  0  0
  129.7434  128.5055  139.0002 C   0  0  0  0  0  0  0  0  0  0  0  0
  129.2026  128.7563  140.2380 C   0  0  0  0  0  0  0  0  0  0  0  0
  129.3169  127.7838  141.2291 C   0  0  0  0  0  0  0  0  0  0  0  0
  125.2221  125.3872  143.1060 N   0  0  0  0  0  0  0  0  0  0  0  0
  124.1174  125.3034  143.9825 C   0  0  0  0  0  0  0  0  0  0  0  0
  122.8937  125.9542  143.4930 C   0  0  2  0  0  0  0  0  0  0  0  0
  121.6903  125.0420  143.4337 C   0  0  0  0  0  0  0  0  0  0  0  0
  122.0386  123.6531  143.0595 C   0  0  0  0  0  0  0  0  0  0  0  0
  121.9067  123.2547  141.8699 N   0  0  0  0  0  0  0  0  0  0  0  0
  121.4267  124.0783  140.8154 C   0  0  0  0  0  0  0  0  0  0  0  0
  122.3802  124.2627  139.7104 C   0  0  0  0  0  0  0  0  0  0  0  0
  122.8533  125.4615  139.3612 C   0  0  0  0  0  0  0  0  0  0  0  0
  122.4064  126.6053  140.0999 C   0  0  0  0  0  0  0  0  0  0  0  0
  122.0276  127.8489  140.4908 C   0  0  0  0  0  0  0  0  0  0  0  0
  122.0210  126.7221  141.4834 C   0  0  2  0  0  0  0  0  0  0  0  0
  123.0677  126.7092  142.3788 O   0  0  0  0  0  0  0  0  0  0  0  0
  1  2  2  0
  2  3  1  0
  4  3  1  6
  4  5  1  0
  5  6  1  0
  6  7  1  6
  7  8  2  0
  8  9  1  0
  9 10  2  0
 10 11  1  0
 11 12  2  0
  2 13  1  0
 13 14  1  0
 15 14  1  6
 15 16  1  0
 16 17  1  0
 17 18  2  3
 18 19  1  0
 19 20  1  0
 20 21  2  3
 21 22  1  0
 22 23  2  0
 23 24  1  0
 24 25  1  1
  6  4  1  0
 12  7  1  0
 25 15  1  0
 24 22  1  0
M  END
>  <docking_score>  (1) 
-7.7210000000000001

$$$$

     RDKit          3D

 25 28  0  0  0  0  0  0  0  0999 V2000
  134.2893  124.0211  139.1975 O   0  0  0  0  0  0  0  0  0  0  0  0
  133.7688  123.0621  139.7797 C   0  0  0  0  0  0  0  0  0  0  0  0
  134.6208  122.0409  140.3518 N   0  0  0  0  0  0  0  0  0  0  0  0
  136.0413  122.2107  140.2032 C   0  0  1  0  0  0  0  0  0  0  0  0
  136.9580  121.2880  140.9403 C   0  0  0  0  0  0  0  0  0  0  0  0
  136.8764  121.3066  139.4189 C   0  0  1  0  0  0  0  0  0  0  0  0
  136.3600  120.0750  138.7681 C   0  0  0  0  0  0  0  0  0  0  0  0
  136.8280  119.6739  137.5339 C   0  0  0  0  0  0  0  0  0  0  0  0
  136.3440  118.5229  136.9282 C   0  0  0  0  0  0  0  0  0  0  0  0
  135.3821  117.7557  137.5515 C   0  0  0  0  0  0  0  0  0  0  0  0
  134.8994  118.1333  138.7812 C   0  0  0  0  0  0  0  0  0  0  0  0
  135.3996  119.2925  139.3706 C   0  0  0  0  0  0  0  0  0  0  0  0
  132.3872  122.9421  139.8969 N   0  0  0  0  0  0  0  0  0  0  0  0
  131.4030  123.8353  139.4182 C   0  0  0  0  0  0  0  0  0  0  0  0
  130.9178  124.8047  140.4110 C   0  0  2  0  0  0  0  0  0  0  0  0
  130.8604  126.2284  139.9074 C   0  0  0  0  0  0  0  0  0  0  0  0
  131.9610  126.5533  138.9728 C   0  0  0  0  0  0  0  0  0  0  0  0
  132.9932  127.1546  139.3781 N   0  0  0  0  0  0  0  0  0  0  0  0
  133.1855  127.5612  140.7266 C   0  0  0  0  0  0  0  0  0  0  0  0
  134.3603  126.9607  141.3775 C   0  0  0  0  0  0  0  0  0  0  0  0
  134.2648  126.1868  142.4613 C   0  0  0  0  0  0  0  0  0  0  0  0
  132.9608  125.9396  143.0019 C   0  0  0  0  0  0  0  0  0  0  0  0
  131.9031  125.6920  143.8161 C   0  0  0  0  0  0  0  0  0  0  0  0
  131.6851  125.8468  142.3385 C   0  0  2  0  0  0  0  0  0  0  0  0
  131.4798  124.6776  141.6396 O   0  0  0  0  0  0  0  0  0  0  0  0
  1  2  2  0
  2  3  1  0
  4  3  1  1
  4  5  1  0
  5  6  1  0
  6  7  1  1
  7  8  2  0
  8  9  1  0
  9 10  2  0
 10 11  1  0
 11 12  2  0
  2 13  1  0
 13 14  1  0
 15 14  1  6
 15 16  1  0
 16 17  1  0
 17 18  2  3
 18 19  1  0
 19 20  1  0
 20 21  2  3
 21 22  1  0
 22 23  2  0
 23 24  1  0
 24 25  1  6
  6  4  1  0
 12  7  1  0
 25 15  1  0
 24 22  1  0
M  END
>  <docking_score>  (2) 
-7.4189999999999996

$$$$

     RDKit          3D

 25 28  0  0  0  0  0  0  0  0999 V2000
  132.1607  123.1871  140.0214 O   0  0  0  0  0  0  0  0  0  0  0  0
  133.0682  123.9177  140.4364 C   0  0  0  0  0  0  0  0  0  0  0  0
  132.7300  125.0592  141.2603 N   0  0  0  0  0  0  0  0  0  0  0  0
  131.3370  125.2732  141.5473 C   0  0  1  0  0  0  0  0  0  0  0  0
  130.7214  124.5547  142.7048 C   0  0  0  0  0  0  0  0  0  0  0  0
  130.8670  126.0712  142.6753 C   0  0  1  0  0  0  0  0  0  0  0  0
  131.7747  126.6693  143.6878 C   0  0  0  0  0  0  0  0  0  0  0  0
  131.9583  128.0347  143.7591 C   0  0  0  0  0  0  0  0  0  0  0  0
  132.8069  128.5909  144.7059 C   0  0  0  0  0  0  0  0  0  0  0  0
  133.4853  127.7855  145.5967 C   0  0  0  0  0  0  0  0  0  0  0  0
  133.3198  126.4225  145.5467 C   0  0  0  0  0  0  0  0  0  0  0  0
  132.4630  125.8859  144.5879 C   0  0  0  0  0  0  0  0  0  0  0  0
  134.4029  123.6688  140.1303 N   0  0  0  0  0  0  0  0  0  0  0  0
  134.9243  122.6073  139.3578 C   0  0  0  0  0  0  0  0  0  0  0  0
  134.8235  121.2824  139.9864 C   0  0  2  0  0  0  0  0  0  0  0  0
  135.7518  121.0845  141.1623 C   0  0  0  0  0  0  0  0  0  0  0  0
  137.0523  121.7699  140.9909 C   0  0  0  0  0  0  0  0  0  0  0  0
  138.0658  121.1360  140.5882 N   0  0  0  0  0  0  0  0  0  0  0  0
  138.0500  119.7500  140.2728 C   0  0  0  0  0  0  0  0  0  0  0  0
  138.4043  119.4432  138.8783 C   0  0  0  0  0  0  0  0  0  0  0  0
  137.5646  118.8291  138.0413 C   0  0  0  0  0  0  0  0  0  0  0  0
  136.2705  118.4593  138.5335 C   0  0  0  0  0  0  0  0  0  0  0  0
  135.0828  117.8460  138.7711 C   0  0  0  0  0  0  0  0  0  0  0  0
  135.4420  119.0921  139.5282 C   0  0  2  0  0  0  0  0  0  0  0  0
  134.8154  120.2457  139.1108 O   0  0  0  0  0  0  0  0  0  0  0  0
  1  2  2  0
  2  3  1  0
  4  3  1  1
  4  5  1  0
  5  6  1  0
  6  7  1  1
  7  8  2  0
  8  9  1  0
  9 10  2  0
 10 11  1  0
 11 12  2  0
  2 13  1  0
 13 14  1  0
 15 14  1  6
 15 16  1  0
 16 17  1  0
 17 18  2  3
 18 19  1  0
 19 20  1  0
 20 21  2  3
 21 22  1  0
 22 23  2  0
 23 24  1  0
 24 25  1  6
  6  4  1  0
 12  7  1  0
 25 15  1  0
 24 22  1  0
M  END
>  <docking_score>  (3) 
-7.4109999999999996

$$$$
