
     RDKit          3D

 20 22  0  0  0  0  0  0  0  0999 V2000
  120.7764  121.2709  143.7687 O   0  0  0  0  0  0  0  0  0  0  0  0
  120.8772  122.4125  143.2237 C   0  0  0  0  0  0  0  0  0  0  0  0
  122.0431  123.1079  143.6439 N   0  0  0  0  0  0  0  0  0  0  0  0
  122.8807  124.1260  143.0576 C   0  0  0  0  0  0  0  0  0  0  0  0
  123.9884  124.2423  143.8719 C   0  0  0  0  0  0  0  0  0  0  0  0
  124.9888  125.1504  143.5694 C   0  0  0  0  0  0  0  0  0  0  0  0
  126.4128  125.3280  144.5799 Cl  0  0  0  0  0  0  0  0  0  0  0  0
  124.8230  125.9142  142.4375 C   0  0  0  0  0  0  0  0  0  0  0  0
  123.7060  125.8004  141.6120 C   0  0  0  0  0  0  0  0  0  0  0  0
  123.5459  126.5534  140.4991 F   0  0  0  0  0  0  0  0  0  0  0  0
  122.7180  124.8947  141.9222 C   0  0  0  0  0  0  0  0  0  0  0  0
  119.7921  122.6464  142.3589 N   0  0  0  0  0  0  0  0  0  0  0  0
  119.5646  123.6133  141.3034 C   0  0  0  0  0  0  0  0  0  0  0  0
  118.2098  123.5286  140.7410 C   0  0  0  0  0  0  0  0  0  0  0  0
  117.6620  124.8841  140.4739 C   0  0  0  0  0  0  0  0  0  0  0  0
  119.3802  125.3724  139.4910 S   0  0  2  0  0  0  0  0  0  0  0  0
  120.3278  124.5348  140.7393 C   0  0  0  0  0  0  0  0  0  0  0  0
  121.6938  124.9994  140.8949 C   0  0  0  0  0  0  0  0  0  0  0  0
  122.0805  125.6458  139.9038 O   0  0  0  0  0  0  0  0  0  0  0  0
  119.4273  127.2538  139.5274 Cl  0  0  0  0  0  0  0  0  0  0  0  0
  1  2  2  0
  2  3  1  0
  3  4  1  0
  4  5  2  0
  5  6  1  0
  6  7  1  0
  6  8  2  0
  8  9  1  0
  9 10  1  0
  9 11  2  0
  2 12  1  0
 12 13  1  0
 13 14  1  0
 14 15  1  0
 15 16  1  0
 16 17  1  0
 17 18  1  0
 18 19  2  0
 16 20  1  1
 11  4  1  0
 18 11  1  0
 13 17  2  0
M  END
>  <docking_score>  (1) 
-7.4880000000000004

$$$$

     RDKit          3D

 20 22  0  0  0  0  0  0  0  0999 V2000
  121.7638  128.1558  140.8193 O   0  0  0  0  0  0  0  0  0  0  0  0
  121.3875  126.9450  140.7661 C   0  0  0  0  0  0  0  0  0  0  0  0
  122.1677  126.1022  141.6030 N   0  0  0  0  0  0  0  0  0  0  0  0
  121.9304  124.8524  142.2840 C   0  0  0  0  0  0  0  0  0  0  0  0
  123.0126  124.6443  143.1142 C   0  0  0  0  0  0  0  0  0  0  0  0
  123.0785  123.5132  143.9100 C   0  0  0  0  0  0  0  0  0  0  0  0
  124.4377  123.2126  144.9789 Cl  0  0  0  0  0  0  0  0  0  0  0  0
  122.0296  122.6268  143.8303 C   0  0  0  0  0  0  0  0  0  0  0  0
  120.9346  122.8326  142.9933 C   0  0  0  0  0  0  0  0  0  0  0  0
  119.9044  121.9585  142.9174 F   0  0  0  0  0  0  0  0  0  0  0  0
  120.8795  123.9601  142.2070 C   0  0  0  0  0  0  0  0  0  0  0  0
  120.2998  126.8024  139.8848 N   0  0  0  0  0  0  0  0  0  0  0  0
  119.3296  125.7449  139.6809 C   0  0  0  0  0  0  0  0  0  0  0  0
  118.4283  126.0142  138.5522 C   0  0  0  0  0  0  0  0  0  0  0  0
  118.1725  124.7753  137.7720 C   0  0  0  0  0  0  0  0  0  0  0  0
  117.7279  123.7916  139.5016 S   0  0  2  0  0  0  0  0  0  0  0  0
  119.0842  124.6073  140.3096 C   0  0  0  0  0  0  0  0  0  0  0  0
  119.6381  123.9032  141.4515 C   0  0  0  0  0  0  0  0  0  0  0  0
  118.8558  123.0394  141.8889 O   0  0  0  0  0  0  0  0  0  0  0  0
  117.9738  121.9720  139.0872 Cl  0  0  0  0  0  0  0  0  0  0  0  0
  1  2  2  0
  2  3  1  0
  3  4  1  0
  4  5  2  0
  5  6  1  0
  6  7  1  0
  6  8  2  0
  8  9  1  0
  9 10  1  0
  9 11  2  0
  2 12  1  0
 12 13  1  0
 13 14  1  0
 14 15  1  0
 15 16  1  0
 16 17  1  0
 17 18  1  0
 18 19  2  0
 16 20  1  6
 11  4  1  0
 18 11  1  0
 13 17  2  0
M  END
>  <docking_score>  (2) 
-7.3259999999999996

$$$$

     RDKit          3D

 20 22  0  0  0  0  0  0  0  0999 V2000
  136.8806  118.8733  137.2213 O   0  0  0  0  0  0  0  0  0  0  0  0
  137.3088  118.0153  136.3900 C   0  0  0  0  0  0  0  0  0  0  0  0
  138.1046  117.0152  137.0113 N   0  0  0  0  0  0  0  0  0  0  0  0
  138.4196  115.6401  136.7086 C   0  0  0  0  0  0  0  0  0  0  0  0
  139.0810  115.1358  137.8096 C   0  0  0  0  0  0  0  0  0  0  0  0
  139.5185  113.8222  137.8239 C   0  0  0  0  0  0  0  0  0  0  0  0
  140.3631  113.1439  139.2048 Cl  0  0  0  0  0  0  0  0  0  0  0  0
  139.2639  113.0629  136.7055 C   0  0  0  0  0  0  0  0  0  0  0  0
  138.5964  113.5677  135.5912 C   0  0  0  0  0  0  0  0  0  0  0  0
  138.3476  112.8180  134.4926 F   0  0  0  0  0  0  0  0  0  0  0  0
  138.1661  114.8744  135.5879 C   0  0  0  0  0  0  0  0  0  0  0  0
  136.8609  118.3177  135.0908 N   0  0  0  0  0  0  0  0  0  0  0  0
  136.8040  117.5471  133.8644 C   0  0  0  0  0  0  0  0  0  0  0  0
  136.3411  118.3414  132.7182 C   0  0  0  0  0  0  0  0  0  0  0  0
  137.1136  118.0040  131.4942 C   0  0  0  0  0  0  0  0  0  0  0  0
  136.7777  116.0234  131.8419 S   0  0  2  0  0  0  0  0  0  0  0  0
  137.0659  116.2830  133.5761 C   0  0  0  0  0  0  0  0  0  0  0  0
  137.5124  115.1138  134.3110 C   0  0  0  0  0  0  0  0  0  0  0  0
  137.2763  114.0589  133.6938 O   0  0  0  0  0  0  0  0  0  0  0  0
  138.1404  115.1387  130.8913 Cl  0  0  0  0  0  0  0  0  0  0  0  0
  1  2  2  0
  2  3  1  0
  3  4  1  0
  4  5  2  0
  5  6  1  0
  6  7  1  0
  6  8  2  0
  8  9  1  0
  9 10  1  0
  9 11  2  0
  2 12  1  0
 12 13  1  0
 13 14  1  0
 14 15  1  0
 15 16  1  0
 16 17  1  0
 17 18  1  0
 18 19  2  0
 16 20  1  6
 11  4  1  0
 18 11  1  0
 13 17  2  0
M  END
>  <docking_score>  (3) 
-6.6769999999999996

$$$$
