
     RDKit          3D

 20 21  0  0  0  0  0  0  0  0999 V2000
  121.9318  127.1522  141.2538 O   0  0  0  0  0  0  0  0  0  0  0  0
  122.4303  125.9813  141.0574 C   0  0  0  0  0  0  0  0  0  0  0  0
  122.5992  125.0414  142.0433 N   0  0  0  0  0  0  0  0  0  0  0  0
  121.9482  123.8753  142.4508 C   0  0  0  0  0  0  0  0  0  0  0  0
  122.6868  123.0306  143.3119 C   0  0  0  0  0  0  0  0  0  0  0  0
  122.2066  121.8601  143.8231 C   0  0  0  0  0  0  0  0  0  0  0  0
  122.9987  121.1031  144.6536 F   0  0  0  0  0  0  0  0  0  0  0  0
  120.9347  121.4476  143.5035 C   0  0  0  0  0  0  0  0  0  0  0  0
  120.2020  122.2556  142.6676 C   0  0  0  0  0  0  0  0  0  0  0  0
  118.9390  121.8083  142.3922 F   0  0  0  0  0  0  0  0  0  0  0  0
  120.6789  123.4621  142.1313 C   0  0  0  0  0  0  0  0  0  0  0  0
  122.8118  125.6978  139.7305 N   0  0  0  0  0  0  0  0  0  0  0  0
  122.6235  124.5340  138.9545 C   0  0  0  0  0  0  0  0  0  0  0  0
  122.3267  123.2676  139.6748 C   0  0  0  0  0  0  0  0  0  0  0  0
  121.0052  122.7648  139.1405 C   0  0  0  0  0  0  0  0  0  0  0  0
  119.9845  123.8393  138.8436 C   0  0  0  0  0  0  0  0  0  0  0  0
  120.1045  124.8343  139.9709 C   0  0  0  0  0  0  0  0  0  0  0  0
  119.7528  124.1803  141.2516 C   0  0  0  0  0  0  0  0  0  0  0  0
  118.5472  124.2401  141.6283 O   0  0  0  0  0  0  0  0  0  0  0  0
  120.7551  121.5456  138.9504 N   0  0  0  0  0  2  0  0  0  0  0  0
  1  2  2  0
  2  3  1  0
  3  4  1  0
  4  5  2  0
  5  6  1  0
  6  7  1  0
  6  8  2  0
  8  9  1  0
  9 10  1  0
  9 11  2  0
  2 12  1  0
 12 13  1  0
 13 14  1  0
 14 15  1  0
 15 16  1  0
 16 17  1  0
 17 18  1  0
 18 19  2  0
 15 20  2  0
 11  4  1  0
 18 11  1  0
M  CHG  1  20  -1
M  END
>  <docking_score>  (1) 
-6.7480000000000002

$$$$

     RDKit          3D

 20 21  0  0  0  0  0  0  0  0999 V2000
  141.1656  114.9609  133.7866 O   0  0  0  0  0  0  0  0  0  0  0  0
  140.0454  114.6497  134.3402 C   0  0  0  0  0  0  0  0  0  0  0  0
  139.5513  115.2529  135.4699 N   0  0  0  0  0  0  0  0  0  0  0  0
  138.5732  116.2057  135.7618 C   0  0  0  0  0  0  0  0  0  0  0  0
  138.1636  116.2681  137.1142 C   0  0  0  0  0  0  0  0  0  0  0  0
  137.2325  117.1470  137.5859 C   0  0  0  0  0  0  0  0  0  0  0  0
  136.8966  117.1341  138.9191 F   0  0  0  0  0  0  0  0  0  0  0  0
  136.6379  118.0380  136.7242 C   0  0  0  0  0  0  0  0  0  0  0  0
  137.0234  117.9920  135.4060 C   0  0  0  0  0  0  0  0  0  0  0  0
  136.4136  118.9078  134.5932 F   0  0  0  0  0  0  0  0  0  0  0  0
  137.9784  117.0949  134.9021 C   0  0  0  0  0  0  0  0  0  0  0  0
  139.3211  113.6186  133.7088 N   0  0  0  0  0  0  0  0  0  0  0  0
  137.9425  113.5112  133.4261 C   0  0  0  0  0  0  0  0  0  0  0  0
  137.0133  114.3835  134.1919 C   0  0  0  0  0  0  0  0  0  0  0  0
  136.2521  115.2034  133.1757 C   0  0  0  0  0  0  0  0  0  0  0  0
  137.0622  115.6561  131.9825 C   0  0  0  0  0  0  0  0  0  0  0  0
  138.4091  116.0519  132.5341 C   0  0  0  0  0  0  0  0  0  0  0  0
  138.2501  117.1918  133.4653 C   0  0  0  0  0  0  0  0  0  0  0  0
  138.3551  118.3578  132.9874 O   0  0  0  0  0  0  0  0  0  0  0  0
  135.0340  115.4976  133.2969 N   0  0  0  0  0  2  0  0  0  0  0  0
  1  2  2  0
  2  3  1  0
  3  4  1  0
  4  5  2  0
  5  6  1  0
  6  7  1  0
  6  8  2  0
  8  9  1  0
  9 10  1  0
  9 11  2  0
  2 12  1  0
 12 13  1  0
 13 14  1  0
 14 15  1  0
 15 16  1  0
 16 17  1  0
 17 18  1  0
 18 19  2  0
 15 20  2  0
 11  4  1  0
 18 11  1  0
M  CHG  1  20  -1
M  END
>  <docking_score>  (2) 
-6.4500000000000002

$$$$
