
     RDKit          3D

 28 31  0  0  0  0  0  0  0  0999 V2000
  136.6425  131.5710  140.1737 O   0  0  0  0  0  0  0  0  0  0  0  0
  137.3926  131.6116  139.1288 C   0  0  0  0  0  0  0  0  0  0  0  0
  138.7626  131.8687  139.0158 N   0  0  0  0  0  0  0  0  0  0  0  0
  139.7666  132.4042  139.8512 C   0  0  0  0  0  0  0  0  0  0  0  0
  140.9227  131.6897  140.1288 C   0  0  0  0  0  0  0  0  0  0  0  0
  141.9096  132.1960  140.9495 C   0  0  0  0  0  0  0  0  0  0  0  0
  141.7457  133.4461  141.5111 C   0  0  0  0  0  0  0  0  0  0  0  0
  142.7008  133.9736  142.3272 F   0  0  0  0  0  0  0  0  0  0  0  0
  140.6216  134.1769  141.2595 C   0  0  0  0  0  0  0  0  0  0  0  0
  140.4426  135.7581  141.9827 Cl  0  0  0  0  0  0  0  0  0  0  0  0
  139.6415  133.6400  140.4268 C   0  0  0  0  0  0  0  0  0  0  0  0
  138.7499  131.3545  137.6827 C   0  0  2  0  0  0  0  0  0  0  0  0
  139.5462  132.0789  136.6883 C   0  0  0  0  0  0  0  0  0  0  0  0
  140.3437  131.3557  135.8287 C   0  0  0  0  0  0  0  0  0  0  0  0
  141.1239  131.9754  134.8730 C   0  0  0  0  0  0  0  0  0  0  0  0
  141.0664  133.3717  134.8188 C   0  0  0  0  0  0  0  0  0  0  0  0
  140.2711  134.0842  135.6761 C   0  0  0  0  0  0  0  0  0  0  0  0
  139.5393  133.4185  136.5799 N   0  0  0  0  0  0  0  0  0  0  0  0
  137.3037  131.4483  137.7058 C   0  0  2  0  0  0  0  0  0  0  0  0
  136.4841  132.2232  136.8149 C   0  0  0  0  0  0  0  0  0  0  0  0
  135.3530  131.5995  136.1271 C   0  0  1  0  0  0  0  0  0  0  0  0
  134.7013  130.4525  136.6510 N   0  0  0  0  0  0  0  0  0  0  0  0
  133.7048  131.3047  137.2750 C   0  0  0  0  0  0  0  0  0  0  0  0
  134.0749  132.3787  136.2735 C   0  0  1  0  0  0  0  0  0  0  0  0
  134.1516  133.7140  136.9338 C   0  0  0  0  0  0  0  0  0  0  0  0
  133.8287  134.6614  135.9518 F   0  0  0  0  0  0  0  0  0  0  0  0
  134.1122  129.6314  135.6109 C   0  0  0  0  0  0  0  0  0  0  0  0
  132.8897  129.1897  136.0646 F   0  0  0  0  0  0  0  0  0  0  0  0
  1  2  2  0
  2  3  1  0
  3  4  1  0
  4  5  2  0
  5  6  1  0
  6  7  2  0
  7  8  1  0
  7  9  1  0
  9 10  1  0
  9 11  2  0
  3 12  1  0
 12 13  1  6
 13 14  2  0
 14 15  1  0
 15 16  2  0
 16 17  1  0
 17 18  2  0
 12 19  1  0
 19 20  1  6
 21 20  1  1
 21 22  1  0
 22 23  1  0
 23 24  1  0
 24 25  1  1
 25 26  1  0
 22 27  1  0
 27 28  1  0
 19  2  1  0
 11  4  1  0
 18 13  1  0
 24 21  1  0
M  END
>  <docking_score>  (1) 
-6.931

$$$$

     RDKit          3D

 28 31  0  0  0  0  0  0  0  0999 V2000
  130.3941  138.0169  144.2242 O   0  0  0  0  0  0  0  0  0  0  0  0
  130.4329  137.3528  143.1225 C   0  0  0  0  0  0  0  0  0  0  0  0
  130.3820  137.8036  141.7997 N   0  0  0  0  0  0  0  0  0  0  0  0
  130.0319  139.0073  141.1509 C   0  0  0  0  0  0  0  0  0  0  0  0
  130.8347  139.5428  140.1543 C   0  0  0  0  0  0  0  0  0  0  0  0
  130.5103  140.7224  139.5162 C   0  0  0  0  0  0  0  0  0  0  0  0
  129.3572  141.3903  139.8762 C   0  0  0  0  0  0  0  0  0  0  0  0
  129.0097  142.5581  139.2665 F   0  0  0  0  0  0  0  0  0  0  0  0
  128.5439  140.8924  140.8517 C   0  0  0  0  0  0  0  0  0  0  0  0
  127.0888  141.7587  141.2849 Cl  0  0  0  0  0  0  0  0  0  0  0  0
  128.8970  139.6991  141.4790 C   0  0  0  0  0  0  0  0  0  0  0  0
  130.8444  136.5297  141.3471 C   0  0  2  0  0  0  0  0  0  0  0  0
  130.2164  135.9912  140.1374 C   0  0  0  0  0  0  0  0  0  0  0  0
  128.9520  136.4240  139.8027 C   0  0  0  0  0  0  0  0  0  0  0  0
  128.3002  135.9524  138.6806 C   0  0  0  0  0  0  0  0  0  0  0  0
  128.9842  135.0151  137.8999 C   0  0  0  0  0  0  0  0  0  0  0  0
  130.2410  134.5898  138.2383 C   0  0  0  0  0  0  0  0  0  0  0  0
  130.8151  135.0889  139.3414 N   0  0  0  0  0  0  0  0  0  0  0  0
  130.5342  135.9984  142.6595 C   0  0  2  0  0  0  0  0  0  0  0  0
  129.6157  134.9328  142.9538 C   0  0  0  0  0  0  0  0  0  0  0  0
  130.1068  133.5646  143.1224 C   0  0  1  0  0  0  0  0  0  0  0  0
  129.7592  132.7811  144.2539 N   0  0  0  0  0  0  0  0  0  0  0  0
  128.6741  132.1771  143.5014 C   0  0  0  0  0  0  0  0  0  0  0  0
  129.4033  132.5748  142.2351 C   0  0  1  0  0  0  0  0  0  0  0  0
  128.4494  133.1114  141.2216 C   0  0  0  0  0  0  0  0  0  0  0  0
  128.5298  132.2595  140.1108 F   0  0  0  0  0  0  0  0  0  0  0  0
  130.7792  131.8032  144.5802 C   0  0  0  0  0  0  0  0  0  0  0  0
  130.4704  131.2665  145.8098 F   0  0  0  0  0  0  0  0  0  0  0  0
  1  2  2  0
  2  3  1  0
  3  4  1  0
  4  5  2  0
  5  6  1  0
  6  7  2  0
  7  8  1  0
  7  9  1  0
  9 10  1  0
  9 11  2  0
  3 12  1  0
 12 13  1  6
 13 14  2  0
 14 15  1  0
 15 16  2  0
 16 17  1  0
 17 18  2  0
 12 19  1  0
 19 20  1  6
 21 20  1  1
 21 22  1  0
 22 23  1  0
 23 24  1  0
 24 25  1  6
 25 26  1  0
 22 27  1  0
 27 28  1  0
 19  2  1  0
 11  4  1  0
 18 13  1  0
 24 21  1  0
M  END
>  <docking_score>  (2) 
-6.5750000000000002

$$$$

     RDKit          3D

 28 31  0  0  0  0  0  0  0  0999 V2000
  136.9686  133.3700  134.5058 O   0  0  0  0  0  0  0  0  0  0  0  0
  136.9223  132.7251  135.6185 C   0  0  0  0  0  0  0  0  0  0  0  0
  135.8275  132.4114  136.4300 N   0  0  0  0  0  0  0  0  0  0  0  0
  134.4858  132.8379  136.5332 C   0  0  0  0  0  0  0  0  0  0  0  0
  133.4628  132.1393  135.9089 C   0  0  0  0  0  0  0  0  0  0  0  0
  132.1476  132.5478  135.9938 C   0  0  0  0  0  0  0  0  0  0  0  0
  131.8376  133.6811  136.7181 C   0  0  0  0  0  0  0  0  0  0  0  0
  130.5490  134.1117  136.8198 F   0  0  0  0  0  0  0  0  0  0  0  0
  132.8182  134.3924  137.3453 C   0  0  0  0  0  0  0  0  0  0  0  0
  132.3955  135.8223  138.2575 Cl  0  0  0  0  0  0  0  0  0  0  0  0
  134.1378  133.9562  137.2421 C   0  0  0  0  0  0  0  0  0  0  0  0
  136.6218  131.4539  137.1328 C   0  0  2  0  0  0  0  0  0  0  0  0
  136.4480  131.3918  138.5866 C   0  0  0  0  0  0  0  0  0  0  0  0
  136.2330  130.1638  139.1729 C   0  0  0  0  0  0  0  0  0  0  0  0
  136.0549  130.0351  140.5359 C   0  0  0  0  0  0  0  0  0  0  0  0
  136.1031  131.2099  141.2932 C   0  0  0  0  0  0  0  0  0  0  0  0
  136.3177  132.4271  140.7038 C   0  0  0  0  0  0  0  0  0  0  0  0
  136.4827  132.4797  139.3750 N   0  0  0  0  0  0  0  0  0  0  0  0
  137.7982  132.0566  136.5379 C   0  0  2  0  0  0  0  0  0  0  0  0
  138.9005  132.6526  137.2416 C   0  0  0  0  0  0  0  0  0  0  0  0
  140.2247  132.0315  137.1948 C   0  0  1  0  0  0  0  0  0  0  0  0
  141.3423  132.6987  136.6284 N   0  0  0  0  0  0  0  0  0  0  0  0
  141.7327  133.1631  137.9477 C   0  0  0  0  0  0  0  0  0  0  0  0
  140.9183  132.0264  138.5293 C   0  0  1  0  0  0  0  0  0  0  0  0
  140.1388  132.4865  139.7148 C   0  0  0  0  0  0  0  0  0  0  0  0
  139.5259  131.3463  140.2537 F   0  0  0  0  0  0  0  0  0  0  0  0
  142.3194  131.7733  136.0878 C   0  0  0  0  0  0  0  0  0  0  0  0
  143.4867  132.4709  135.8733 F   0  0  0  0  0  0  0  0  0  0  0  0
  1  2  2  0
  2  3  1  0
  3  4  1  0
  4  5  2  0
  5  6  1  0
  6  7  2  0
  7  8  1  0
  7  9  1  0
  9 10  1  0
  9 11  2  0
  3 12  1  0
 12 13  1  1
 13 14  2  0
 14 15  1  0
 15 16  2  0
 16 17  1  0
 17 18  2  0
 12 19  1  0
 19 20  1  1
 21 20  1  1
 21 22  1  0
 22 23  1  0
 23 24  1  0
 24 25  1  1
 25 26  1  0
 22 27  1  0
 27 28  1  0
 19  2  1  0
 11  4  1  0
 18 13  1  0
 24 21  1  0
M  END
>  <docking_score>  (3) 
-6.3040000000000003

$$$$
