
     RDKit          3D

 11 11  0  0  0  0  0  0  0  0999 V2000
  136.2568  123.8660  141.9183 O   0  0  0  0  0  0  0  0  0  0  0  0
  136.9346  123.4159  140.9880 C   0  0  0  0  0  0  0  0  0  0  0  0
  136.7916  122.0920  140.4706 N   0  0  0  0  0  0  0  0  0  0  0  0
  135.6016  121.6947  139.7995 C   0  0  0  0  0  0  0  0  0  0  0  0
  135.4699  120.4679  139.3204 C   0  0  0  0  0  0  0  0  0  0  0  0
  136.5470  119.4967  139.4726 C   0  0  0  0  0  0  0  0  0  0  0  0
  136.4286  118.2534  138.9939 C   0  0  0  0  0  0  0  0  0  0  0  0
  135.2053  117.8036  138.2898 C   0  0  0  0  0  0  0  0  0  0  0  0
  135.4204  117.5673  136.9551 F   0  0  0  0  0  0  0  0  0  0  0  0
  137.8270  121.1272  140.6062 C   0  0  0  0  0  0  0  0  0  0  0  0
  137.7202  119.9271  140.1475 N   0  0  0  0  0  0  0  0  0  0  0  0
  1  2  2  0
  2  3  1  0
  3  4  1  0
  4  5  2  0
  5  6  1  0
  6  7  2  3
  7  8  1  0
  8  9  1  0
  3 10  1  0
 10 11  2  0
 11  6  1  0
M  END
>  <docking_score>  (1) 
-4.399

$$$$

     RDKit          3D

 11 11  0  0  0  0  0  0  0  0999 V2000
  138.1812  119.4067  140.5758 O   0  0  0  0  0  0  0  0  0  0  0  0
  137.8947  120.6087  140.5950 C   0  0  0  0  0  0  0  0  0  0  0  0
  136.5664  121.1102  140.4367 N   0  0  0  0  0  0  0  0  0  0  0  0
  136.3142  122.5099  140.3969 C   0  0  0  0  0  0  0  0  0  0  0  0
  135.0832  122.9737  140.2501 C   0  0  0  0  0  0  0  0  0  0  0  0
  133.9581  122.0544  140.1262 C   0  0  0  0  0  0  0  0  0  0  0  0
  132.7086  122.5080  139.9774 C   0  0  0  0  0  0  0  0  0  0  0  0
  132.4072  123.9576  139.9315 C   0  0  0  0  0  0  0  0  0  0  0  0
  132.1333  124.4800  141.1707 F   0  0  0  0  0  0  0  0  0  0  0  0
  135.4531  120.2346  140.3137 C   0  0  0  0  0  0  0  0  0  0  0  0
  134.2462  120.6643  140.1701 N   0  0  0  0  0  0  0  0  0  0  0  0
  1  2  2  0
  2  3  1  0
  3  4  1  0
  4  5  2  0
  5  6  1  0
  6  7  2  3
  7  8  1  0
  8  9  1  0
  3 10  1  0
 10 11  2  0
 11  6  1  0
M  END
>  <docking_score>  (2) 
-4.2910000000000004

$$$$

     RDKit          3D

 11 11  0  0  0  0  0  0  0  0999 V2000
  138.3005  117.4339  132.4516 O   0  0  0  0  0  0  0  0  0  0  0  0
  137.4855  116.8045  133.1351 C   0  0  0  0  0  0  0  0  0  0  0  0
  137.0974  117.1845  134.4564 N   0  0  0  0  0  0  0  0  0  0  0  0
  138.0383  117.7551  135.3583 C   0  0  0  0  0  0  0  0  0  0  0  0
  137.6779  118.1068  136.5823 C   0  0  0  0  0  0  0  0  0  0  0  0
  136.3038  117.9150  137.0309 C   0  0  0  0  0  0  0  0  0  0  0  0
  135.9246  118.2655  138.2647 C   0  0  0  0  0  0  0  0  0  0  0  0
  136.8756  118.8621  139.2312 C   0  0  0  0  0  0  0  0  0  0  0  0
  136.4916  118.6738  140.5353 F   0  0  0  0  0  0  0  0  0  0  0  0
  135.7641  117.0078  134.9172 C   0  0  0  0  0  0  0  0  0  0  0  0
  135.3913  117.3431  136.1049 N   0  0  0  0  0  0  0  0  0  0  0  0
  1  2  2  0
  2  3  1  0
  3  4  1  0
  4  5  2  0
  5  6  1  0
  6  7  2  3
  7  8  1  0
  8  9  1  0
  3 10  1  0
 10 11  2  0
 11  6  1  0
M  END
>  <docking_score>  (3) 
-4.1879999999999997

$$$$
