
     RDKit          3D

 30 34  0  0  0  0  0  0  0  0999 V2000
  135.6764  121.4257  141.6915 O   0  0  0  0  0  0  0  0  0  0  0  0
  136.2454  122.1087  140.8181 C   0  0  0  0  0  0  0  0  0  0  0  0
  137.3809  121.5074  140.2091 N   0  0  0  0  0  0  0  0  0  0  0  0
  137.9888  120.2908  140.3926 C   0  0  1  0  0  0  0  0  0  0  0  0
  137.4669  119.0100  140.8450 C   0  0  0  0  0  0  0  0  0  0  0  0
  138.3274  119.1836  139.5488 C   0  0  1  0  0  0  0  0  0  0  0  0
  137.6736  118.6495  138.3737 C   0  0  0  0  0  0  0  0  0  0  0  0
  136.7203  119.3026  137.6180 C   0  0  0  0  0  0  0  0  0  0  0  0
  136.1473  118.7414  136.4963 C   0  0  0  0  0  0  0  0  0  0  0  0
  136.5187  117.4626  136.0737 C   0  0  0  0  0  0  0  0  0  0  0  0
  137.4650  116.8055  136.8181 C   0  0  0  0  0  0  0  0  0  0  0  0
  138.0241  117.3723  137.9267 C   0  0  0  0  0  0  0  0  0  0  0  0
  135.8075  123.4097  140.4429 N   0  0  0  0  0  0  0  0  0  0  0  0
  136.4317  124.5689  141.0161 C   0  0  0  0  0  0  0  0  0  0  0  0
  135.7589  125.8619  140.6770 C   0  0  0  0  0  0  0  0  0  0  0  0
  135.3841  125.9446  139.2379 C   0  0  2  0  0  0  0  0  0  0  0  0
  134.6982  127.2495  138.9515 C   0  0  0  0  0  0  0  0  0  0  0  0
  134.0952  127.6130  137.8073 N   0  0  0  0  0  0  0  0  0  0  0  0
  133.5960  128.8576  137.9323 C   0  0  0  0  0  0  0  0  0  0  0  0
  132.8717  129.6541  136.9703 C   0  0  0  0  0  0  0  0  0  0  0  0
  132.2030  129.0909  135.8901 C   0  0  0  0  0  0  0  0  0  0  0  0
  131.5297  129.9124  135.0230 C   0  0  0  0  0  0  0  0  0  0  0  0
  131.5028  131.2734  135.1987 C   0  0  0  0  0  0  0  0  0  0  0  0
  132.1742  131.8123  136.2778 C   0  0  0  0  0  0  0  0  0  0  0  0
  132.8224  130.9818  137.1074 N   0  0  0  0  0  0  0  0  0  0  0  0
  133.9128  129.2337  139.1762 N   0  0  0  0  0  0  0  0  0  0  0  0
  134.5664  128.2619  139.7602 O   0  0  0  0  0  0  0  0  0  0  0  0
  134.4259  124.8299  138.8431 C   0  0  0  0  0  0  0  0  0  0  0  0
  134.7569  123.5651  139.5126 C   0  0  0  0  0  0  0  0  0  0  0  0
  134.0678  122.5642  139.2423 O   0  0  0  0  0  0  0  0  0  0  0  0
  1  2  2  0
  2  3  1  0
  4  3  1  6
  4  5  1  0
  5  6  1  0
  6  7  1  6
  7  8  2  0
  8  9  1  0
  9 10  2  0
 10 11  1  0
 11 12  2  0
  2 13  1  0
 13 14  1  0
 14 15  1  0
 15 16  1  0
 16 17  1  1
 17 18  2  0
 18 19  1  0
 19 20  1  0
 20 21  2  0
 21 22  1  0
 22 23  2  0
 23 24  1  0
 24 25  2  0
 19 26  2  0
 26 27  1  0
 16 28  1  0
 28 29  1  0
 29 30  2  0
  6  4  1  0
 12  7  1  0
 29 13  1  0
 27 17  1  0
 25 20  1  0
M  END
>  <docking_score>  (1) 
-8.5570000000000004

$$$$

     RDKit          3D

 30 34  0  0  0  0  0  0  0  0999 V2000
  134.2810  120.3933  140.1291 O   0  0  0  0  0  0  0  0  0  0  0  0
  134.7769  121.5217  139.9451 C   0  0  0  0  0  0  0  0  0  0  0  0
  136.1976  121.5731  139.9191 N   0  0  0  0  0  0  0  0  0  0  0  0
  137.1574  120.6017  140.0550 C   0  0  1  0  0  0  0  0  0  0  0  0
  137.0904  119.2462  140.5799 C   0  0  0  0  0  0  0  0  0  0  0  0
  137.7288  119.6070  139.1968 C   0  0  1  0  0  0  0  0  0  0  0  0
  137.1543  118.8490  138.1064 C   0  0  0  0  0  0  0  0  0  0  0  0
  135.8357  118.4506  138.0120 C   0  0  0  0  0  0  0  0  0  0  0  0
  135.3478  117.7421  136.9342 C   0  0  0  0  0  0  0  0  0  0  0  0
  136.1887  117.3938  135.8743 C   0  0  0  0  0  0  0  0  0  0  0  0
  137.5007  117.7849  135.9590 C   0  0  0  0  0  0  0  0  0  0  0  0
  137.9709  118.4855  137.0317 C   0  0  0  0  0  0  0  0  0  0  0  0
  133.9914  122.6962  139.7750 N   0  0  0  0  0  0  0  0  0  0  0  0
  132.6006  122.6860  140.1324 C   0  0  0  0  0  0  0  0  0  0  0  0
  131.8537  123.9204  139.7354 C   0  0  0  0  0  0  0  0  0  0  0  0
  132.6148  125.1645  140.0381 C   0  0  2  0  0  0  0  0  0  0  0  0
  131.8333  126.3722  139.6067 C   0  0  0  0  0  0  0  0  0  0  0  0
  131.0938  127.1786  140.3863 N   0  0  0  0  0  0  0  0  0  0  0  0
  130.5433  128.1538  139.6382 C   0  0  0  0  0  0  0  0  0  0  0  0
  129.6807  129.2395  140.0406 C   0  0  0  0  0  0  0  0  0  0  0  0
  128.5957  129.0532  140.8886 C   0  0  0  0  0  0  0  0  0  0  0  0
  127.8270  130.1353  141.2325 C   0  0  0  0  0  0  0  0  0  0  0  0
  128.1054  131.3930  140.7585 C   0  0  0  0  0  0  0  0  0  0  0  0
  129.1875  131.5558  139.9169 C   0  0  0  0  0  0  0  0  0  0  0  0
  129.9193  130.4778  139.6003 N   0  0  0  0  0  0  0  0  0  0  0  0
  130.9679  127.9152  138.3925 N   0  0  0  0  0  0  0  0  0  0  0  0
  131.7319  126.8528  138.4005 O   0  0  0  0  0  0  0  0  0  0  0  0
  133.9480  125.1985  139.3046 C   0  0  0  0  0  0  0  0  0  0  0  0
  134.5736  123.8706  139.2506 C   0  0  0  0  0  0  0  0  0  0  0  0
  135.6899  123.7733  138.7084 O   0  0  0  0  0  0  0  0  0  0  0  0
  1  2  2  0
  2  3  1  0
  4  3  1  6
  4  5  1  0
  5  6  1  0
  6  7  1  6
  7  8  2  0
  8  9  1  0
  9 10  2  0
 10 11  1  0
 11 12  2  0
  2 13  1  0
 13 14  1  0
 14 15  1  0
 15 16  1  0
 16 17  1  6
 17 18  2  0
 18 19  1  0
 19 20  1  0
 20 21  2  0
 21 22  1  0
 22 23  2  0
 23 24  1  0
 24 25  2  0
 19 26  2  0
 26 27  1  0
 16 28  1  0
 28 29  1  0
 29 30  2  0
  6  4  1  0
 12  7  1  0
 29 13  1  0
 27 17  1  0
 25 20  1  0
M  END
>  <docking_score>  (2) 
-8.4990000000000006

$$$$

     RDKit          3D

 30 34  0  0  0  0  0  0  0  0999 V2000
  136.0932  117.5012  139.3087 O   0  0  0  0  0  0  0  0  0  0  0  0
  136.9395  117.9691  138.5227 C   0  0  0  0  0  0  0  0  0  0  0  0
  137.6896  119.0737  139.0117 N   0  0  0  0  0  0  0  0  0  0  0  0
  137.6703  119.7424  140.2099 C   0  0  1  0  0  0  0  0  0  0  0  0
  138.0360  121.1069  140.5592 C   0  0  0  0  0  0  0  0  0  0  0  0
  136.6785  120.4439  140.9692 C   0  0  1  0  0  0  0  0  0  0  0  0
  135.5327  121.2206  140.5480 C   0  0  0  0  0  0  0  0  0  0  0  0
  134.2160  120.8104  140.6138 C   0  0  0  0  0  0  0  0  0  0  0  0
  133.1667  121.6089  140.2098 C   0  0  0  0  0  0  0  0  0  0  0  0
  133.4029  122.8911  139.7078 C   0  0  0  0  0  0  0  0  0  0  0  0
  134.7080  123.3077  139.6382 C   0  0  0  0  0  0  0  0  0  0  0  0
  135.7373  122.5071  140.0412 C   0  0  0  0  0  0  0  0  0  0  0  0
  137.1544  117.4506  137.2149 N   0  0  0  0  0  0  0  0  0  0  0  0
  137.9390  116.2613  137.0357 C   0  0  0  0  0  0  0  0  0  0  0  0
  138.2374  115.9298  135.6073 C   0  0  0  0  0  0  0  0  0  0  0  0
  137.0445  116.0851  134.7290 C   0  0  2  0  0  0  0  0  0  0  0  0
  137.3980  115.7588  133.3064 C   0  0  0  0  0  0  0  0  0  0  0  0
  138.1424  114.7275  132.8735 N   0  0  0  0  0  0  0  0  0  0  0  0
  138.2384  114.7687  131.5307 C   0  0  0  0  0  0  0  0  0  0  0  0
  138.9315  113.8733  130.6348 C   0  0  0  0  0  0  0  0  0  0  0  0
  140.1029  113.2186  130.9956 C   0  0  0  0  0  0  0  0  0  0  0  0
  140.6994  112.3766  130.0925 C   0  0  0  0  0  0  0  0  0  0  0  0
  140.1660  112.1682  128.8451 C   0  0  0  0  0  0  0  0  0  0  0  0
  139.0021  112.8290  128.5068 C   0  0  0  0  0  0  0  0  0  0  0  0
  138.4435  113.6448  129.4126 N   0  0  0  0  0  0  0  0  0  0  0  0
  137.5360  115.8472  131.1669 N   0  0  0  0  0  0  0  0  0  0  0  0
  137.0474  116.4172  132.2388 O   0  0  0  0  0  0  0  0  0  0  0  0
  136.5138  117.5114  134.7510 C   0  0  0  0  0  0  0  0  0  0  0  0
  136.6033  118.1048  136.0917 C   0  0  0  0  0  0  0  0  0  0  0  0
  136.1642  119.2589  136.2493 O   0  0  0  0  0  0  0  0  0  0  0  0
  1  2  2  0
  2  3  1  0
  4  3  1  6
  4  5  1  0
  5  6  1  0
  6  7  1  6
  7  8  2  0
  8  9  1  0
  9 10  2  0
 10 11  1  0
 11 12  2  0
  2 13  1  0
 13 14  1  0
 14 15  1  0
 15 16  1  0
 16 17  1  6
 17 18  2  0
 18 19  1  0
 19 20  1  0
 20 21  2  0
 21 22  1  0
 22 23  2  0
 23 24  1  0
 24 25  2  0
 19 26  2  0
 26 27  1  0
 16 28  1  0
 28 29  1  0
 29 30  2  0
  6  4  1  0
 12  7  1  0
 29 13  1  0
 27 17  1  0
 25 20  1  0
M  END
>  <docking_score>  (3) 
-8.407

$$$$
