
     RDKit          3D

 29 33  0  0  0  0  0  0  0  0999 V2000
  135.1687  118.8249  138.9347 O   0  0  0  0  0  0  0  0  0  0  0  0
  136.2080  119.3623  138.5530 C   0  0  0  0  0  0  0  0  0  0  0  0
  136.5388  120.6653  139.0368 N   0  0  0  0  0  0  0  0  0  0  0  0
  135.7423  121.3970  139.9627 C   0  0  1  0  0  0  0  0  0  0  0  0
  136.3461  122.4432  140.8347 C   0  0  0  0  0  0  0  0  0  0  0  0
  135.7288  122.9163  139.5666 C   0  0  2  0  0  0  0  0  0  0  0  0
  134.3871  123.4686  139.4729 C   0  0  0  0  0  0  0  0  0  0  0  0
  133.3418  122.8230  140.1345 C   0  0  0  0  0  0  0  0  0  0  0  0
  132.0446  123.3178  140.0779 C   0  0  0  0  0  0  0  0  0  0  0  0
  131.7768  124.4792  139.3501 C   0  0  0  0  0  0  0  0  0  0  0  0
  132.8101  125.1353  138.6851 C   0  0  0  0  0  0  0  0  0  0  0  0
  134.0731  124.6006  138.7760 C   0  0  0  0  0  0  0  0  0  0  0  0
  137.0653  118.6856  137.6504 N   0  0  0  0  0  0  0  0  0  0  0  0
  136.9127  117.4419  137.1161 C   0  0  0  0  0  0  0  0  0  0  0  0
  137.2725  117.0043  135.7849 C   0  0  2  0  0  0  0  0  0  0  0  0
  136.8040  117.7953  134.5576 C   0  0  1  0  0  0  0  0  0  0  0  0
  137.1998  116.9604  133.3549 C   0  0  0  0  0  0  0  0  0  0  0  0
  138.1358  116.0021  133.2681 N   0  0  0  0  0  0  0  0  0  0  0  0
  138.1759  115.5029  132.0388 C   0  0  0  0  0  0  0  0  0  0  0  0
  138.9708  114.4548  131.4234 C   0  0  0  0  0  0  0  0  0  0  0  0
  140.0341  113.8820  132.1007 C   0  0  0  0  0  0  0  0  0  0  0  0
  140.8254  112.9022  131.5664 C   0  0  0  0  0  0  0  0  0  0  0  0
  140.5356  112.4673  130.2760 C   0  0  0  0  0  0  0  0  0  0  0  0
  139.4525  113.0708  129.6241 C   0  0  0  0  0  0  0  0  0  0  0  0
  138.7068  114.0247  130.1843 N   0  0  0  0  0  0  0  0  0  0  0  0
  137.2178  116.1928  131.3477 N   0  0  0  0  0  0  0  0  0  0  0  0
  136.6838  117.0341  132.1777 O   0  0  0  0  0  0  0  0  0  0  0  0
  135.3966  117.2623  134.9650 C   0  0  0  0  0  0  0  0  0  0  0  0
  136.1889  115.9809  135.3176 C   0  0  0  0  0  0  0  0  0  0  0  0
  1  2  2  0
  2  3  1  0
  4  3  1  6
  4  5  1  0
  5  6  1  0
  6  7  1  1
  7  8  2  0
  8  9  1  0
  9 10  2  0
 10 11  1  0
 11 12  2  0
  2 13  1  0
 13 14  1  0
 15 14  1  1
 15 16  1  0
 16 17  1  6
 17 18  2  0
 18 19  1  0
 19 20  1  0
 20 21  2  0
 21 22  1  0
 22 23  2  0
 23 24  1  0
 24 25  2  0
 19 26  2  0
 26 27  1  0
 16 28  1  0
 28 29  1  0
  6  4  1  0
 12  7  1  0
 29 15  1  0
 27 17  1  0
 25 20  1  0
M  END
>  <docking_score>  (1) 
-7.7549999999999999

$$$$

     RDKit          3D

 29 33  0  0  0  0  0  0  0  0999 V2000
  136.3996  117.1362  138.5294 O   0  0  0  0  0  0  0  0  0  0  0  0
  136.3646  118.0677  137.7258 C   0  0  0  0  0  0  0  0  0  0  0  0
  136.6662  117.8164  136.3521 N   0  0  0  0  0  0  0  0  0  0  0  0
  136.9962  116.5333  135.8309 C   0  0  1  0  0  0  0  0  0  0  0  0
  137.8312  116.3949  134.6049 C   0  0  0  0  0  0  0  0  0  0  0  0
  138.5490  116.3134  135.9053 C   0  0  2  0  0  0  0  0  0  0  0  0
  138.9171  115.0648  136.5529 C   0  0  0  0  0  0  0  0  0  0  0  0
  139.3654  115.0943  137.8741 C   0  0  0  0  0  0  0  0  0  0  0  0
  139.7226  113.9255  138.5352 C   0  0  0  0  0  0  0  0  0  0  0  0
  139.6329  112.6993  137.8729 C   0  0  0  0  0  0  0  0  0  0  0  0
  139.1863  112.6538  136.5542 C   0  0  0  0  0  0  0  0  0  0  0  0
  138.8468  113.8410  135.9504 C   0  0  0  0  0  0  0  0  0  0  0  0
  136.0197  119.3698  138.1653 N   0  0  0  0  0  0  0  0  0  0  0  0
  135.6840  119.7728  139.4224 C   0  0  0  0  0  0  0  0  0  0  0  0
  135.3633  121.1133  139.8621 C   0  0  2  0  0  0  0  0  0  0  0  0
  136.3706  122.2529  139.6674 C   0  0  1  0  0  0  0  0  0  0  0  0
  135.7871  123.4467  140.3986 C   0  0  0  0  0  0  0  0  0  0  0  0
  136.4087  124.3309  141.1947 N   0  0  0  0  0  0  0  0  0  0  0  0
  135.5479  125.2367  141.6429 C   0  0  0  0  0  0  0  0  0  0  0  0
  135.6946  126.4008  142.4987 C   0  0  0  0  0  0  0  0  0  0  0  0
  134.6964  127.3578  142.5701 C   0  0  0  0  0  0  0  0  0  0  0  0
  134.7855  128.4803  143.3472 C   0  0  0  0  0  0  0  0  0  0  0  0
  135.9433  128.6567  144.1001 C   0  0  0  0  0  0  0  0  0  0  0  0
  136.9295  127.6668  144.0011 C   0  0  0  0  0  0  0  0  0  0  0  0
  136.8002  126.5865  143.2289 N   0  0  0  0  0  0  0  0  0  0  0  0
  134.3468  124.8833  141.0915 N   0  0  0  0  0  0  0  0  0  0  0  0
  134.5563  123.8236  140.3740 O   0  0  0  0  0  0  0  0  0  0  0  0
  137.1883  121.4851  140.7503 C   0  0  0  0  0  0  0  0  0  0  0  0
  135.7892  121.2311  141.3603 C   0  0  0  0  0  0  0  0  0  0  0  0
  1  2  2  0
  2  3  1  0
  4  3  1  6
  4  5  1  0
  5  6  1  0
  6  7  1  1
  7  8  2  0
  8  9  1  0
  9 10  2  0
 10 11  1  0
 11 12  2  0
  2 13  1  0
 13 14  1  0
 15 14  1  6
 15 16  1  0
 16 17  1  1
 17 18  2  0
 18 19  1  0
 19 20  1  0
 20 21  2  0
 21 22  1  0
 22 23  2  0
 23 24  1  0
 24 25  2  0
 19 26  2  0
 26 27  1  0
 16 28  1  0
 28 29  1  0
  6  4  1  0
 12  7  1  0
 29 15  1  0
 27 17  1  0
 25 20  1  0
M  END
>  <docking_score>  (2) 
-7.7060000000000004

$$$$

     RDKit          3D

 29 33  0  0  0  0  0  0  0  0999 V2000
  136.1517  122.5815  140.8088 O   0  0  0  0  0  0  0  0  0  0  0  0
  135.0319  122.5158  140.3025 C   0  0  0  0  0  0  0  0  0  0  0  0
  134.2663  123.7115  140.1434 N   0  0  0  0  0  0  0  0  0  0  0  0
  134.7227  125.0058  140.5221 C   0  0  1  0  0  0  0  0  0  0  0  0
  135.2699  125.9527  139.5104 C   0  0  0  0  0  0  0  0  0  0  0  0
  133.8281  126.1036  139.8441 C   0  0  2  0  0  0  0  0  0  0  0  0
  133.3109  127.0804  140.7888 C   0  0  0  0  0  0  0  0  0  0  0  0
  132.2286  127.8773  140.4137 C   0  0  0  0  0  0  0  0  0  0  0  0
  131.6974  128.8198  141.2856 C   0  0  0  0  0  0  0  0  0  0  0  0
  132.2504  128.9761  142.5585 C   0  0  0  0  0  0  0  0  0  0  0  0
  133.3306  128.1872  142.9475 C   0  0  0  0  0  0  0  0  0  0  0  0
  133.8146  127.2714  142.0439 C   0  0  0  0  0  0  0  0  0  0  0  0
  134.5190  121.2653  139.8774 N   0  0  0  0  0  0  0  0  0  0  0  0
  135.1217  120.0450  139.9333 C   0  0  0  0  0  0  0  0  0  0  0  0
  135.7153  119.3044  138.8415 C   0  0  2  0  0  0  0  0  0  0  0  0
  136.4055  117.9604  139.1037 C   0  0  1  0  0  0  0  0  0  0  0  0
  137.0590  117.5710  137.7915 C   0  0  0  0  0  0  0  0  0  0  0  0
  136.8387  118.0660  136.5633 N   0  0  0  0  0  0  0  0  0  0  0  0
  137.6171  117.4622  135.6735 C   0  0  0  0  0  0  0  0  0  0  0  0
  137.7928  117.6271  134.2413 C   0  0  0  0  0  0  0  0  0  0  0  0
  138.7496  118.4936  133.7402 C   0  0  0  0  0  0  0  0  0  0  0  0
  138.9504  118.6994  132.4026 C   0  0  0  0  0  0  0  0  0  0  0  0
  138.1459  117.9951  131.5109 C   0  0  0  0  0  0  0  0  0  0  0  0
  137.1902  117.1284  132.0566 C   0  0  0  0  0  0  0  0  0  0  0  0
  137.0288  116.9585  133.3700 N   0  0  0  0  0  0  0  0  0  0  0  0
  138.3436  116.5577  136.3983 N   0  0  0  0  0  0  0  0  0  0  0  0
  137.9663  116.6714  137.6338 O   0  0  0  0  0  0  0  0  0  0  0  0
  137.4669  118.8420  139.8295 C   0  0  0  0  0  0  0  0  0  0  0  0
  137.1793  119.8196  138.6651 C   0  0  0  0  0  0  0  0  0  0  0  0
  1  2  2  0
  2  3  1  0
  4  3  1  6
  4  5  1  0
  5  6  1  0
  6  7  1  1
  7  8  2  0
  8  9  1  0
  9 10  2  0
 10 11  1  0
 11 12  2  0
  2 13  1  0
 13 14  1  0
 15 14  1  1
 15 16  1  0
 16 17  1  6
 17 18  2  0
 18 19  1  0
 19 20  1  0
 20 21  2  0
 21 22  1  0
 22 23  2  0
 23 24  1  0
 24 25  2  0
 19 26  2  0
 26 27  1  0
 16 28  1  0
 28 29  1  0
  6  4  1  0
 12  7  1  0
 29 15  1  0
 27 17  1  0
 25 20  1  0
M  END
>  <docking_score>  (3) 
-7.6340000000000003

$$$$
