
     RDKit          3D

 20 22  0  0  0  0  0  0  0  0999 V2000
  131.6251  137.4576  139.9499 O   0  0  0  0  0  0  0  0  0  0  0  0
  130.7200  138.1639  140.4698 C   0  0  0  0  0  0  0  0  0  0  0  0
  130.0995  137.4703  141.5643 N   0  0  0  0  0  0  0  0  0  0  0  0
  129.3631  137.9002  142.7224 C   0  0  0  0  0  0  0  0  0  0  0  0
  129.2026  136.7917  143.5274 C   0  0  0  0  0  0  0  0  0  0  0  0
  128.5247  136.8720  144.7388 C   0  0  0  0  0  0  0  0  0  0  0  0
  128.3147  135.4680  145.7711 Cl  0  0  0  0  0  0  0  0  0  0  0  0
  128.0274  138.1096  145.0855 C   0  0  0  0  0  0  0  0  0  0  0  0
  128.1802  139.2329  144.2875 C   0  0  0  0  0  0  0  0  0  0  0  0
  127.5221  140.7833  144.7862 Cl  0  0  0  0  0  0  0  0  0  0  0  0
  128.8567  139.1295  143.0894 C   0  0  0  0  0  0  0  0  0  0  0  0
  130.5739  139.4278  139.8335 N   0  0  0  0  0  0  0  0  0  0  0  0
  130.0577  140.7005  140.2332 C   0  0  0  0  0  0  0  0  0  0  0  0
  130.3398  141.7888  139.2853 C   0  0  0  0  0  0  0  0  0  0  0  0
  129.0715  142.5126  138.9734 C   0  0  0  0  0  0  0  0  0  0  0  0
  129.0360  142.8164  141.1894 S   0  0  2  0  0  0  0  0  0  0  0  0
  129.3823  141.0958  141.2776 C   0  0  0  0  0  0  0  0  0  0  0  0
  128.8589  140.4514  142.4775 C   0  0  0  0  0  0  0  0  0  0  0  0
  128.2093  141.2477  143.2325 O   0  0  0  0  0  0  0  0  0  0  0  0
  128.7351  144.1028  141.6268 Cl  0  0  0  0  0  0  0  0  0  0  0  0
  1  2  2  0
  2  3  1  0
  3  4  1  0
  4  5  2  0
  5  6  1  0
  6  7  1  0
  6  8  2  0
  8  9  1  0
  9 10  1  0
  9 11  2  0
  2 12  1  0
 12 13  1  0
 13 14  1  0
 14 15  1  0
 15 16  1  0
 16 17  1  0
 17 18  1  0
 18 19  2  0
 16 20  1  0
 11  4  1  0
 18 11  1  0
 13 17  2  0
M  END
>  <docking_score>  (1) 
-6.9299999999999997

$$$$

     RDKit          3D

 20 22  0  0  0  0  0  0  0  0999 V2000
  134.2621  133.1948  136.4516 O   0  0  0  0  0  0  0  0  0  0  0  0
  135.4016  132.6932  136.6483 C   0  0  0  0  0  0  0  0  0  0  0  0
  136.2233  132.8233  135.4770 N   0  0  0  0  0  0  0  0  0  0  0  0
  137.6445  132.8310  135.2573 C   0  0  0  0  0  0  0  0  0  0  0  0
  137.8434  133.2052  133.9447 C   0  0  0  0  0  0  0  0  0  0  0  0
  139.1228  133.3101  133.4105 C   0  0  0  0  0  0  0  0  0  0  0  0
  139.3876  133.7854  131.7416 Cl  0  0  0  0  0  0  0  0  0  0  0  0
  140.1701  133.0218  134.2586 C   0  0  0  0  0  0  0  0  0  0  0  0
  139.9867  132.6444  135.5799 C   0  0  0  0  0  0  0  0  0  0  0  0
  141.3643  132.2898  136.6105 Cl  0  0  0  0  0  0  0  0  0  0  0  0
  138.7078  132.5469  136.0886 C   0  0  0  0  0  0  0  0  0  0  0  0
  135.5459  132.1497  137.9549 N   0  0  0  0  0  0  0  0  0  0  0  0
  136.6579  131.8732  138.8111 C   0  0  0  0  0  0  0  0  0  0  0  0
  136.2835  131.5219  140.1891 C   0  0  0  0  0  0  0  0  0  0  0  0
  136.9727  130.2563  140.5802 C   0  0  0  0  0  0  0  0  0  0  0  0
  138.8063  131.4396  140.0885 S   0  0  2  0  0  0  0  0  0  0  0  0
  137.9484  131.8703  138.6165 C   0  0  0  0  0  0  0  0  0  0  0  0
  138.8255  132.1369  137.4814 C   0  0  0  0  0  0  0  0  0  0  0  0
  140.0608  131.9728  137.7517 O   0  0  0  0  0  0  0  0  0  0  0  0
  139.8499  131.3620  141.0058 Cl  0  0  0  0  0  0  0  0  0  0  0  0
  1  2  2  0
  2  3  1  0
  3  4  1  0
  4  5  2  0
  5  6  1  0
  6  7  1  0
  6  8  2  0
  8  9  1  0
  9 10  1  0
  9 11  2  0
  2 12  1  0
 12 13  1  0
 13 14  1  0
 14 15  1  0
 15 16  1  0
 16 17  1  0
 17 18  1  0
 18 19  2  0
 16 20  1  0
 11  4  1  0
 18 11  1  0
 13 17  2  0
M  END
>  <docking_score>  (2) 
-6.7960000000000003

$$$$
