
     RDKit          3D

 29 32  0  0  0  0  0  0  0  0999 V2000
  137.8086  118.5276  133.7494 O   0  0  0  0  0  0  0  0  0  0  0  0
  137.8969  117.4573  134.3505 C   0  0  0  0  0  0  0  0  0  0  0  0
  137.9751  117.1205  135.7546 N   0  0  0  0  0  0  0  0  0  0  0  0
  137.3156  117.6768  136.8752 C   0  0  0  0  0  0  0  0  0  0  0  0
  135.9424  117.6250  137.0204 C   0  0  0  0  0  0  0  0  0  0  0  0
  135.2911  118.1754  138.1239 C   0  0  0  0  0  0  0  0  0  0  0  0
  136.0204  118.7923  139.1083 C   0  0  0  0  0  0  0  0  0  0  0  0
  135.4617  119.3469  140.2117 F   0  0  0  0  0  0  0  0  0  0  0  0
  137.3878  118.8681  139.0064 C   0  0  0  0  0  0  0  0  0  0  0  0
  138.3502  119.6600  140.2659 Cl  0  0  0  0  0  0  0  0  0  0  0  0
  137.9938  118.3117  137.8996 C   0  0  0  0  0  0  0  0  0  0  0  0
  138.9083  116.1089  135.3389 C   0  0  1  0  0  0  0  0  0  0  0  0
  139.0946  114.9296  136.1637 C   0  0  0  0  0  0  0  0  0  0  0  0
  139.5391  115.0734  137.4639 C   0  0  0  0  0  0  0  0  0  0  0  0
  139.7258  113.9650  138.2978 C   0  0  0  0  0  0  0  0  0  0  0  0
  139.4684  112.6951  137.8362 C   0  0  0  0  0  0  0  0  0  0  0  0
  139.0252  112.5832  136.5316 C   0  0  0  0  0  0  0  0  0  0  0  0
  138.8575  113.6714  135.7582 N   0  0  0  0  0  0  0  0  0  0  0  0
  137.9771  115.9696  134.1278 C   0  0  2  0  0  0  0  0  0  0  0  0
  138.6790  115.7022  132.8429 C   0  0  1  0  0  0  0  0  0  0  0  0
  139.2229  114.2963  132.8028 C   0  0  0  0  0  0  0  0  0  0  0  0
  138.2402  113.3498  132.2446 N   0  0  0  0  0  0  0  0  0  0  0  0
  137.9647  113.7009  130.8651 C   0  0  1  0  0  0  0  0  0  0  0  0
  136.5598  113.3305  130.4722 C   0  0  0  0  0  0  0  0  0  0  0  0
  136.3359  113.5350  129.1171 F   0  0  0  0  0  0  0  0  0  0  0  0
  138.1760  115.0999  130.5781 N   0  0  0  0  0  0  0  0  0  0  0  0
  137.7227  115.8790  131.7017 C   0  0  1  0  0  0  0  0  0  0  0  0
  136.3055  115.5694  132.1184 C   0  0  0  0  0  0  0  0  0  0  0  0
  135.4417  116.3464  131.3425 F   0  0  0  0  0  0  0  0  0  0  0  0
  1  2  2  0
  2  3  1  0
  3  4  1  0
  4  5  2  0
  5  6  1  0
  6  7  2  0
  7  8  1  0
  7  9  1  0
  9 10  1  0
  9 11  2  0
  3 12  1  0
 12 13  1  1
 13 14  2  0
 14 15  1  0
 15 16  2  0
 16 17  1  0
 17 18  2  0
 12 19  1  0
 19 20  1  0
 20 21  1  1
 21 22  1  0
 22 23  1  0
 23 24  1  1
 24 25  1  0
 23 26  1  0
 26 27  1  0
 27 28  1  1
 28 29  1  0
 19  2  1  6
 11  4  1  0
 18 13  1  0
 27 20  1  0
M  END
>  <docking_score>  (1) 
-7.8810000000000002

$$$$

     RDKit          3D

 29 32  0  0  0  0  0  0  0  0999 V2000
  130.8799  139.9933  139.8457 O   0  0  0  0  0  0  0  0  0  0  0  0
  130.3321  139.4732  140.8173 C   0  0  0  0  0  0  0  0  0  0  0  0
  129.9420  139.9789  142.1147 N   0  0  0  0  0  0  0  0  0  0  0  0
  129.3910  141.2255  142.4917 C   0  0  0  0  0  0  0  0  0  0  0  0
  130.1085  142.4031  142.4038 C   0  0  0  0  0  0  0  0  0  0  0  0
  129.5667  143.6326  142.7778 C   0  0  0  0  0  0  0  0  0  0  0  0
  128.2805  143.6954  143.2503 C   0  0  0  0  0  0  0  0  0  0  0  0
  127.6826  144.8512  143.6294 F   0  0  0  0  0  0  0  0  0  0  0  0
  127.5295  142.5504  143.3555 C   0  0  0  0  0  0  0  0  0  0  0  0
  125.8661  142.6077  143.9630 Cl  0  0  0  0  0  0  0  0  0  0  0  0
  128.1019  141.3547  142.9756 C   0  0  0  0  0  0  0  0  0  0  0  0
  130.3667  138.6979  142.6106 C   0  0  1  0  0  0  0  0  0  0  0  0
  129.8047  138.1916  143.8490 C   0  0  0  0  0  0  0  0  0  0  0  0
  130.5665  138.2178  145.0013 C   0  0  0  0  0  0  0  0  0  0  0  0
  130.0631  137.7471  146.2193 C   0  0  0  0  0  0  0  0  0  0  0  0
  128.7858  137.2428  146.2966 C   0  0  0  0  0  0  0  0  0  0  0  0
  128.0482  137.2295  145.1276 C   0  0  0  0  0  0  0  0  0  0  0  0
  128.5652  137.6901  143.9738 N   0  0  0  0  0  0  0  0  0  0  0  0
  129.7614  138.1671  141.3047 C   0  0  2  0  0  0  0  0  0  0  0  0
  130.5178  137.0412  140.6921 C   0  0  1  0  0  0  0  0  0  0  0  0
  130.4599  135.8105  141.5616 C   0  0  0  0  0  0  0  0  0  0  0  0
  129.3002  134.9639  141.2277 N   0  0  0  0  0  0  0  0  0  0  0  0
  129.4368  134.4758  139.8693 C   0  0  1  0  0  0  0  0  0  0  0  0
  128.0946  134.2660  139.2215 C   0  0  0  0  0  0  0  0  0  0  0  0
  128.2214  133.8614  137.8992 F   0  0  0  0  0  0  0  0  0  0  0  0
  130.2309  135.3398  139.0285 N   0  0  0  0  0  0  0  0  0  0  0  0
  129.9294  136.7103  139.3532 C   0  0  1  0  0  0  0  0  0  0  0  0
  128.4556  137.0319  139.3053 C   0  0  0  0  0  0  0  0  0  0  0  0
  128.1030  137.2710  137.9746 F   0  0  0  0  0  0  0  0  0  0  0  0
  1  2  2  0
  2  3  1  0
  3  4  1  0
  4  5  2  0
  5  6  1  0
  6  7  2  0
  7  8  1  0
  7  9  1  0
  9 10  1  0
  9 11  2  0
  3 12  1  0
 12 13  1  1
 13 14  2  0
 14 15  1  0
 15 16  2  0
 16 17  1  0
 17 18  2  0
 12 19  1  0
 19 20  1  0
 20 21  1  1
 21 22  1  0
 22 23  1  0
 23 24  1  6
 24 25  1  0
 23 26  1  0
 26 27  1  0
 27 28  1  1
 28 29  1  0
 19  2  1  6
 11  4  1  0
 18 13  1  0
 27 20  1  0
M  END
>  <docking_score>  (2) 
-7.8380000000000001

$$$$

     RDKit          3D

 29 32  0  0  0  0  0  0  0  0999 V2000
  133.5707  136.4162  139.1977 O   0  0  0  0  0  0  0  0  0  0  0  0
  132.5206  135.7745  139.1960 C   0  0  0  0  0  0  0  0  0  0  0  0
  131.2941  135.8920  139.9530 N   0  0  0  0  0  0  0  0  0  0  0  0
  130.5762  137.0348  140.3755 C   0  0  0  0  0  0  0  0  0  0  0  0
  129.8790  137.8339  139.4897 C   0  0  0  0  0  0  0  0  0  0  0  0
  129.1727  138.9624  139.9051 C   0  0  0  0  0  0  0  0  0  0  0  0
  129.1574  139.3066  141.2328 C   0  0  0  0  0  0  0  0  0  0  0  0
  128.4919  140.3847  141.7145 F   0  0  0  0  0  0  0  0  0  0  0  0
  129.8365  138.5421  142.1496 C   0  0  0  0  0  0  0  0  0  0  0  0
  129.8305  138.9676  143.8696 Cl  0  0  0  0  0  0  0  0  0  0  0  0
  130.5228  137.4343  141.6984 C   0  0  0  0  0  0  0  0  0  0  0  0
  131.3009  134.4543  139.9624 C   0  0  1  0  0  0  0  0  0  0  0  0
  130.0492  133.7371  140.1195 C   0  0  0  0  0  0  0  0  0  0  0  0
  129.7963  133.0624  141.2983 C   0  0  0  0  0  0  0  0  0  0  0  0
  128.6000  132.3638  141.4967 C   0  0  0  0  0  0  0  0  0  0  0  0
  127.6399  132.3332  140.5121 C   0  0  0  0  0  0  0  0  0  0  0  0
  127.9216  133.0172  139.3443 C   0  0  0  0  0  0  0  0  0  0  0  0
  129.0833  133.6781  139.1883 N   0  0  0  0  0  0  0  0  0  0  0  0
  131.8415  134.6038  138.5345 C   0  0  2  0  0  0  0  0  0  0  0  0
  132.8648  133.5909  138.1578 C   0  0  1  0  0  0  0  0  0  0  0  0
  132.4784  132.2187  138.6495 C   0  0  0  0  0  0  0  0  0  0  0  0
  131.6683  131.4935  137.6541 N   0  0  0  0  0  0  0  0  0  0  0  0
  132.4600  131.2713  136.4599 C   0  0  1  0  0  0  0  0  0  0  0  0
  131.5988  131.2375  135.2261 C   0  0  0  0  0  0  0  0  0  0  0  0
  131.5587  129.9686  134.6637 F   0  0  0  0  0  0  0  0  0  0  0  0
  133.5026  132.2525  136.2745 N   0  0  0  0  0  0  0  0  0  0  0  0
  133.0003  133.5447  136.6652 C   0  0  1  0  0  0  0  0  0  0  0  0
  131.7075  133.9212  135.9835 C   0  0  0  0  0  0  0  0  0  0  0  0
  132.0174  134.5749  134.7883 F   0  0  0  0  0  0  0  0  0  0  0  0
  1  2  2  0
  2  3  1  0
  3  4  1  0
  4  5  2  0
  5  6  1  0
  6  7  2  0
  7  8  1  0
  7  9  1  0
  9 10  1  0
  9 11  2  0
  3 12  1  0
 12 13  1  6
 13 14  2  0
 14 15  1  0
 15 16  2  0
 16 17  1  0
 17 18  2  0
 12 19  1  0
 19 20  1  0
 20 21  1  6
 21 22  1  0
 22 23  1  0
 23 24  1  6
 24 25  1  0
 23 26  1  0
 26 27  1  0
 27 28  1  6
 28 29  1  0
 19  2  1  1
 11  4  1  0
 18 13  1  0
 27 20  1  0
M  END
>  <docking_score>  (3) 
-7.4349999999999996

$$$$
