
     RDKit          3D

 26 28  0  0  0  0  0  0  0  0999 V2000
  118.5908  122.1776  138.4969 C   0  0  0  0  0  0  0  0  0  0  0  0
  120.0467  122.3037  138.8904 C   0  0  0  0  0  0  0  0  0  0  0  0
  120.9227  121.4141  138.0583 C   0  0  0  0  0  0  0  0  0  0  0  0
  120.2504  122.1497  140.3034 N   0  0  0  0  0  0  0  0  0  0  0  0
  119.1767  122.8383  140.9850 C   0  0  0  0  0  0  0  0  0  0  0  0
  119.5441  124.1820  141.5188 C   0  0  2  0  0  0  0  0  0  0  0  0
  119.0907  125.3492  140.7568 C   0  0  0  0  0  0  0  0  0  0  0  0
  120.0445  125.8688  139.7150 C   0  0  0  0  0  0  0  0  0  0  0  0
  121.0196  126.7248  140.3492 N   0  0  0  0  0  0  0  0  0  0  0  0
  122.1619  125.9557  140.6783 C   0  0  2  0  0  0  0  0  0  0  0  0
  123.0169  125.5366  139.5679 C   0  0  0  0  0  0  0  0  0  0  0  0
  122.8342  124.4359  139.0592 O   0  0  0  0  0  0  0  0  0  0  0  0
  122.0426  125.0307  141.7515 N   0  0  0  0  0  0  0  0  0  0  0  0
  123.2579  124.9561  142.4641 C   0  0  0  0  0  0  0  0  0  0  0  0
  124.3304  125.7471  142.0358 C   0  0  0  0  0  0  0  0  0  0  0  0
  125.5144  125.6600  142.7458 C   0  0  0  0  0  0  0  0  0  0  0  0
  126.9422  126.6011  142.3141 Cl  0  0  0  0  0  0  0  0  0  0  0  0
  125.6341  124.8237  143.8376 C   0  0  0  0  0  0  0  0  0  0  0  0
  124.5674  124.0459  144.2529 C   0  0  0  0  0  0  0  0  0  0  0  0
  124.6316  123.2060  145.3207 F   0  0  0  0  0  0  0  0  0  0  0  0
  123.3652  124.1190  143.5505 C   0  0  0  0  0  0  0  0  0  0  0  0
  122.2310  123.3087  143.9705 C   0  0  0  0  0  0  0  0  0  0  0  0
  121.0069  123.4636  143.1531 C   0  0  0  0  0  0  0  0  0  0  0  0
  119.7761  122.6625  143.5125 C   0  0  0  0  0  0  0  0  0  0  0  0
  120.1657  121.6438  144.3556 F   0  0  0  0  0  0  0  0  0  0  0  0
  120.8872  124.2606  142.1097 C   0  0  0  0  0  0  0  0  0  0  0  0
  1  2  1  0
  2  3  1  0
  2  4  1  0
  4  5  1  0
  6  5  1  6
  6  7  1  0
  7  8  1  0
  8  9  1  0
  9 10  1  0
 10 11  1  6
 11 12  2  0
 10 13  1  0
 13 14  1  0
 14 15  2  0
 15 16  1  0
 16 17  1  0
 16 18  2  0
 18 19  1  0
 19 20  1  0
 19 21  2  0
 21 22  1  0
 22 23  1  0
 23 24  1  0
 24 25  1  0
  6 26  1  0
 26 13  1  0
 21 14  1  0
 23 26  2  0
M  END
>  <docking_score>  (1) 
-7.4699999999999998

$$$$

     RDKit          3D

 26 28  0  0  0  0  0  0  0  0999 V2000
  147.7770  138.1628  142.2210 C   0  0  0  0  0  0  0  0  0  0  0  0
  146.8811  138.0888  141.0036 C   0  0  0  0  0  0  0  0  0  0  0  0
  146.6370  139.4467  140.4141 C   0  0  0  0  0  0  0  0  0  0  0  0
  145.6773  137.3460  141.2504 N   0  0  0  0  0  0  0  0  0  0  0  0
  145.2216  136.8059  139.9886 C   0  0  0  0  0  0  0  0  0  0  0  0
  143.7811  137.0567  139.6924 C   0  0  2  0  0  0  0  0  0  0  0  0
  142.9191  137.4100  140.8239 C   0  0  0  0  0  0  0  0  0  0  0  0
  142.2349  136.2623  141.5164 C   0  0  0  0  0  0  0  0  0  0  0  0
  141.0418  135.9089  140.7832 N   0  0  0  0  0  0  0  0  0  0  0  0
  141.3528  134.8712  139.8716 C   0  0  2  0  0  0  0  0  0  0  0  0
  141.5893  133.5439  140.4389 C   0  0  0  0  0  0  0  0  0  0  0  0
  140.7789  133.0851  141.2368 O   0  0  0  0  0  0  0  0  0  0  0  0
  142.1406  135.2092  138.7372 N   0  0  0  0  0  0  0  0  0  0  0  0
  141.7333  134.4491  137.6207 C   0  0  0  0  0  0  0  0  0  0  0  0
  140.6875  133.5332  137.7844 C   0  0  0  0  0  0  0  0  0  0  0  0
  140.3025  132.7959  136.6791 C   0  0  0  0  0  0  0  0  0  0  0  0
  138.9998  131.6089  136.7468 Cl  0  0  0  0  0  0  0  0  0  0  0  0
  140.9267  132.9574  135.4585 C   0  0  0  0  0  0  0  0  0  0  0  0
  141.9597  133.8659  135.3073 C   0  0  0  0  0  0  0  0  0  0  0  0
  142.6082  134.0641  134.1283 F   0  0  0  0  0  0  0  0  0  0  0  0
  142.3629  134.6188  136.4093 C   0  0  0  0  0  0  0  0  0  0  0  0
  143.4481  135.5795  136.2718 C   0  0  0  0  0  0  0  0  0  0  0  0
  143.7945  136.3218  137.5045 C   0  0  0  0  0  0  0  0  0  0  0  0
  144.9094  137.3421  137.4600 C   0  0  0  0  0  0  0  0  0  0  0  0
  144.3963  138.5065  136.9296 F   0  0  0  0  0  0  0  0  0  0  0  0
  143.2018  136.1714  138.6725 C   0  0  0  0  0  0  0  0  0  0  0  0
  1  2  1  0
  2  3  1  0
  2  4  1  0
  4  5  1  0
  6  5  1  1
  6  7  1  0
  7  8  1  0
  8  9  1  0
  9 10  1  0
 10 11  1  1
 11 12  2  0
 10 13  1  0
 13 14  1  0
 14 15  2  0
 15 16  1  0
 16 17  1  0
 16 18  2  0
 18 19  1  0
 19 20  1  0
 19 21  2  0
 21 22  1  0
 22 23  1  0
 23 24  1  0
 24 25  1  0
  6 26  1  0
 26 13  1  0
 21 14  1  0
 23 26  2  0
M  END
>  <docking_score>  (2) 
-7.0430000000000001

$$$$

     RDKit          3D

 26 28  0  0  0  0  0  0  0  0999 V2000
  133.8813  135.9352  139.3880 C   0  0  0  0  0  0  0  0  0  0  0  0
  134.2507  135.1675  140.6388 C   0  0  0  0  0  0  0  0  0  0  0  0
  135.5035  135.7040  141.2663 C   0  0  0  0  0  0  0  0  0  0  0  0
  134.2791  133.7478  140.4251 N   0  0  0  0  0  0  0  0  0  0  0  0
  134.2745  133.5129  138.9980 C   0  0  0  0  0  0  0  0  0  0  0  0
  134.8841  132.2163  138.5826 C   0  0  2  0  0  0  0  0  0  0  0  0
  135.0724  131.2034  139.6250 C   0  0  0  0  0  0  0  0  0  0  0  0
  136.4013  131.2219  140.3315 C   0  0  0  0  0  0  0  0  0  0  0  0
  137.3723  130.5094  139.5346 N   0  0  0  0  0  0  0  0  0  0  0  0
  138.0586  131.4340  138.7106 C   0  0  2  0  0  0  0  0  0  0  0  0
  139.0156  132.3216  139.3707 C   0  0  0  0  0  0  0  0  0  0  0  0
  139.8575  131.8373  140.1193 O   0  0  0  0  0  0  0  0  0  0  0  0
  137.3421  131.9974  137.6194 N   0  0  0  0  0  0  0  0  0  0  0  0
  138.2069  132.1951  136.5224 C   0  0  0  0  0  0  0  0  0  0  0  0
  139.5525  131.8357  136.6623 C   0  0  0  0  0  0  0  0  0  0  0  0
  140.3859  132.0378  135.5769 C   0  0  0  0  0  0  0  0  0  0  0  0
  142.1010  131.6289  135.6181 Cl  0  0  0  0  0  0  0  0  0  0  0  0
  139.9081  132.5741  134.3980 C   0  0  0  0  0  0  0  0  0  0  0  0
  138.5756  132.9260  134.2702 C   0  0  0  0  0  0  0  0  0  0  0  0
  138.0536  133.4577  133.1324 F   0  0  0  0  0  0  0  0  0  0  0  0
  137.7191  132.7304  135.3528 C   0  0  0  0  0  0  0  0  0  0  0  0
  136.3142  133.0944  135.2393 C   0  0  0  0  0  0  0  0  0  0  0  0
  135.4977  132.8458  136.4485 C   0  0  0  0  0  0  0  0  0  0  0  0
  134.0261  133.1920  136.4263 C   0  0  0  0  0  0  0  0  0  0  0  0
  133.8931  134.4373  135.8501 F   0  0  0  0  0  0  0  0  0  0  0  0
  135.9488  132.3340  137.5765 C   0  0  0  0  0  0  0  0  0  0  0  0
  1  2  1  0
  2  3  1  0
  2  4  1  0
  4  5  1  0
  6  5  1  1
  6  7  1  0
  7  8  1  0
  8  9  1  0
  9 10  1  0
 10 11  1  1
 11 12  2  0
 10 13  1  0
 13 14  1  0
 14 15  2  0
 15 16  1  0
 16 17  1  0
 16 18  2  0
 18 19  1  0
 19 20  1  0
 19 21  2  0
 21 22  1  0
 22 23  1  0
 23 24  1  0
 24 25  1  0
  6 26  1  0
 26 13  1  0
 21 14  1  0
 23 26  2  0
M  END
>  <docking_score>  (3) 
-6.8449999999999998

$$$$
