
     RDKit          3D

 37 38  0  0  0  0  0  0  0  0999 V2000
  138.2621  133.0668  132.3893 C   0  0  0  0  0  0  0  0  0  0  0  0
  138.4872  133.3649  133.8616 C   0  0  0  0  0  0  0  0  0  0  0  0
  137.1275  133.3677  134.5342 C   0  0  0  0  0  0  0  0  0  0  0  0
  139.4008  132.4243  134.4577 N   0  0  0  0  0  0  0  0  0  0  0  0
  140.7797  132.7667  134.5393 C   0  0  0  0  0  0  0  0  0  0  0  0
  141.1613  133.8831  134.0852 O   0  0  0  0  0  0  0  0  0  0  0  0
  141.7799  131.8741  135.1324 C   0  0  0  0  0  0  0  0  0  0  0  0
  142.4790  132.4952  136.2159 N   0  0  0  0  0  0  0  0  0  0  0  0
  143.7418  133.0892  136.0103 C   0  0  0  0  0  0  0  0  0  0  0  0
  143.8540  134.4529  136.1947 C   0  0  0  0  0  0  0  0  0  0  0  0
  145.0999  135.0148  135.9897 C   0  0  0  0  0  0  0  0  0  0  0  0
  146.1998  134.3010  135.6215 C   0  0  0  0  0  0  0  0  0  0  0  0
  146.0642  132.9224  135.4404 C   0  0  0  0  0  0  0  0  0  0  0  0
  147.4835  132.0088  134.9681 Cl  0  0  0  0  0  0  0  0  0  0  0  0
  144.8512  132.3290  135.6330 C   0  0  0  0  0  0  0  0  0  0  0  0
  141.7523  132.5076  137.7863 S   0  0  0  0  0  0  0  0  0  0  0  0
  141.9890  133.8255  138.4679 O   0  0  0  0  0  0  0  0  0  0  0  0
  142.5153  131.4602  138.5850 O   0  0  0  0  0  0  0  0  0  0  0  0
  140.0709  132.2017  137.7357 C   0  0  0  0  0  0  0  0  0  0  0  0
  139.2566  132.0363  138.6415 C   0  0  0  0  0  0  0  0  0  0  0  0
  139.3446  132.0265  140.0742 C   0  0  0  0  0  0  0  0  0  0  0  0
  138.7634  131.0334  140.7031 C   0  0  0  0  0  0  0  0  0  0  0  0
  138.6231  130.6651  142.0725 C   0  0  0  0  0  0  0  0  0  0  0  0
  137.5772  131.2005  142.8408 N   0  0  0  0  0  0  0  0  0  0  0  0
  136.2502  131.4844  142.5945 C   0  0  0  0  0  0  0  0  0  0  0  0
  135.3303  131.3091  143.4929 O   0  0  0  0  0  0  0  0  0  0  0  0
  135.7818  131.9930  141.3347 C   0  0  0  0  0  0  0  0  0  0  0  0
  136.1228  133.1143  140.7325 C   0  0  0  0  0  0  0  0  0  0  0  0
  137.0254  134.0290  141.2266 N   0  0  0  0  0  0  0  0  0  0  0  0
  136.8878  135.1011  141.8920 C   0  0  0  0  0  0  0  0  0  0  0  0
  138.0436  135.8476  142.2664 O   0  0  0  0  0  0  0  0  0  0  0  0
  139.2712  135.1855  142.0051 C   0  0  0  0  0  0  0  0  0  0  0  0
  139.2271  134.1482  141.2854 C   0  0  0  0  0  0  0  0  0  0  0  0
  140.0737  133.1519  140.7348 C   0  0  0  0  0  0  0  0  0  0  0  0
  139.4522  129.7992  142.6840 C   0  0  0  0  0  0  0  0  0  0  0  0
  139.2704  129.4619  144.0643 C   0  0  0  0  0  0  0  0  0  0  0  0
  140.1055  128.7668  144.7948 C   0  0  0  0  0  0  0  0  0  0  0  0
  1  2  1  0
  2  3  1  0
  2  4  1  0
  4  5  1  0
  5  6  2  0
  5  7  1  0
  7  8  1  0
  8  9  1  0
  9 10  2  0
 10 11  1  0
 11 12  2  0
 12 13  1  0
 13 14  1  0
 13 15  2  0
  8 16  1  0
 16 17  2  0
 16 18  2  0
 16 19  1  0
 19 20  2  3
 20 21  1  0
 21 22  2  3
 22 23  1  0
 23 24  1  0
 24 25  1  0
 25 26  2  0
 25 27  1  0
 27 28  2  3
 28 29  1  0
 29 30  2  3
 30 31  1  0
 31 32  1  0
 32 33  2  3
 33 34  1  0
 23 35  2  3
 35 36  1  0
 36 37  2  0
 15  9  1  0
 34 21  1  0
M  END
>  <docking_score>  (1) 
-8.0280000000000005

$$$$

     RDKit          3D

 37 38  0  0  0  0  0  0  0  0999 V2000
  137.4348  133.5749  134.5784 C   0  0  0  0  0  0  0  0  0  0  0  0
  136.9694  132.5197  135.5671 C   0  0  0  0  0  0  0  0  0  0  0  0
  138.0831  132.3273  136.5788 C   0  0  0  0  0  0  0  0  0  0  0  0
  135.7181  132.8849  136.1799 N   0  0  0  0  0  0  0  0  0  0  0  0
  134.6543  131.9396  136.1807 C   0  0  0  0  0  0  0  0  0  0  0  0
  134.8382  130.8104  135.6427 O   0  0  0  0  0  0  0  0  0  0  0  0
  133.3486  132.2225  136.7838 C   0  0  0  0  0  0  0  0  0  0  0  0
  133.4482  132.4665  138.1906 N   0  0  0  0  0  0  0  0  0  0  0  0
  133.1940  133.7501  138.7174 C   0  0  0  0  0  0  0  0  0  0  0  0
  134.2620  134.4687  139.2165 C   0  0  0  0  0  0  0  0  0  0  0  0
  133.9918  135.7245  139.7265 C   0  0  0  0  0  0  0  0  0  0  0  0
  132.7466  136.2751  139.7594 C   0  0  0  0  0  0  0  0  0  0  0  0
  131.6800  135.5310  139.2490 C   0  0  0  0  0  0  0  0  0  0  0  0
  130.0801  136.2456  139.2925 Cl  0  0  0  0  0  0  0  0  0  0  0  0
  131.9046  134.2870  138.7364 C   0  0  0  0  0  0  0  0  0  0  0  0
  133.8861  131.1620  139.2398 S   0  0  0  0  0  0  0  0  0  0  0  0
  132.9565  129.9969  139.0510 O   0  0  0  0  0  0  0  0  0  0  0  0
  133.6464  131.6876  140.6481 O   0  0  0  0  0  0  0  0  0  0  0  0
  135.4946  130.6348  138.9981 C   0  0  0  0  0  0  0  0  0  0  0  0
  136.5278  130.9014  139.6082 C   0  0  0  0  0  0  0  0  0  0  0  0
  136.8342  131.7305  140.7392 C   0  0  0  0  0  0  0  0  0  0  0  0
  137.4202  132.8787  140.4987 C   0  0  0  0  0  0  0  0  0  0  0  0
  137.8765  133.9559  141.3124 C   0  0  0  0  0  0  0  0  0  0  0  0
  139.1568  133.9098  141.8864 N   0  0  0  0  0  0  0  0  0  0  0  0
  140.3920  133.4793  141.4496 C   0  0  0  0  0  0  0  0  0  0  0  0
  141.4886  134.0958  141.7686 O   0  0  0  0  0  0  0  0  0  0  0  0
  140.5648  132.3232  140.6136 C   0  0  0  0  0  0  0  0  0  0  0  0
  140.2326  131.0748  140.8728 C   0  0  0  0  0  0  0  0  0  0  0  0
  139.6368  130.6454  142.0374 N   0  0  0  0  0  0  0  0  0  0  0  0
  140.0997  130.1397  143.1055 C   0  0  0  0  0  0  0  0  0  0  0  0
  139.2066  129.7909  144.1610 O   0  0  0  0  0  0  0  0  0  0  0  0
  137.8742  130.2378  143.9646 C   0  0  0  0  0  0  0  0  0  0  0  0
  137.5742  130.6761  142.8185 C   0  0  0  0  0  0  0  0  0  0  0  0
  136.4785  131.2157  142.0968 C   0  0  0  0  0  0  0  0  0  0  0  0
  137.1333  135.0508  141.5578 C   0  0  0  0  0  0  0  0  0  0  0  0
  137.6363  136.1069  142.3845 C   0  0  0  0  0  0  0  0  0  0  0  0
  136.9087  136.9196  143.1085 C   0  0  0  0  0  0  0  0  0  0  0  0
  1  2  1  0
  2  3  1  0
  2  4  1  0
  4  5  1  0
  5  6  2  0
  5  7  1  0
  7  8  1  0
  8  9  1  0
  9 10  2  0
 10 11  1  0
 11 12  2  0
 12 13  1  0
 13 14  1  0
 13 15  2  0
  8 16  1  0
 16 17  2  0
 16 18  2  0
 16 19  1  0
 19 20  2  3
 20 21  1  0
 21 22  2  3
 22 23  1  0
 23 24  1  0
 24 25  1  0
 25 26  2  0
 25 27  1  0
 27 28  2  3
 28 29  1  0
 29 30  2  3
 30 31  1  0
 31 32  1  0
 32 33  2  3
 33 34  1  0
 23 35  2  3
 35 36  1  0
 36 37  2  0
 15  9  1  0
 34 21  1  0
M  END
>  <docking_score>  (2) 
-7.8150000000000004

$$$$

     RDKit          3D

 37 38  0  0  0  0  0  0  0  0999 V2000
  132.1399  124.9436  141.2898 C   0  0  0  0  0  0  0  0  0  0  0  0
  133.1145  124.6105  140.1732 C   0  0  0  0  0  0  0  0  0  0  0  0
  132.4890  123.5056  139.3432 C   0  0  0  0  0  0  0  0  0  0  0  0
  133.4416  125.7757  139.3921 N   0  0  0  0  0  0  0  0  0  0  0  0
  134.7248  126.3697  139.5529 C   0  0  0  0  0  0  0  0  0  0  0  0
  135.5371  125.8592  140.3763 O   0  0  0  0  0  0  0  0  0  0  0  0
  135.1456  127.5538  138.7982 C   0  0  0  0  0  0  0  0  0  0  0  0
  134.3908  128.7158  139.1570 N   0  0  0  0  0  0  0  0  0  0  0  0
  133.6662  129.4318  138.1813 C   0  0  0  0  0  0  0  0  0  0  0  0
  132.4573  128.9132  137.7619 C   0  0  0  0  0  0  0  0  0  0  0  0
  131.7626  129.6308  136.8066 C   0  0  0  0  0  0  0  0  0  0  0  0
  132.2056  130.8015  136.2702 C   0  0  0  0  0  0  0  0  0  0  0  0
  133.4313  131.3087  136.7088 C   0  0  0  0  0  0  0  0  0  0  0  0
  133.9955  132.8167  136.0160 Cl  0  0  0  0  0  0  0  0  0  0  0  0
  134.1480  130.6307  137.6507 C   0  0  0  0  0  0  0  0  0  0  0  0
  134.3790  129.2322  140.8085 S   0  0  0  0  0  0  0  0  0  0  0  0
  133.5348  128.3121  141.6440 O   0  0  0  0  0  0  0  0  0  0  0  0
  133.6742  130.5813  140.7976 O   0  0  0  0  0  0  0  0  0  0  0  0
  135.9478  129.3138  141.4835 C   0  0  0  0  0  0  0  0  0  0  0  0
  136.8857  130.0724  141.2474 C   0  0  0  0  0  0  0  0  0  0  0  0
  137.0771  131.1740  140.3471 C   0  0  0  0  0  0  0  0  0  0  0  0
  137.8259  130.9618  139.2918 C   0  0  0  0  0  0  0  0  0  0  0  0
  138.2496  131.7622  138.1916 C   0  0  0  0  0  0  0  0  0  0  0  0
  139.3912  132.5708  138.3091 N   0  0  0  0  0  0  0  0  0  0  0  0
  140.6266  132.4109  138.9009 C   0  0  0  0  0  0  0  0  0  0  0  0
  141.7115  132.8841  138.3687 O   0  0  0  0  0  0  0  0  0  0  0  0
  140.8122  131.7142  140.1440 C   0  0  0  0  0  0  0  0  0  0  0  0
  140.2962  132.0006  141.3221 C   0  0  0  0  0  0  0  0  0  0  0  0
  139.4543  133.0603  141.5750 N   0  0  0  0  0  0  0  0  0  0  0  0
  139.6551  134.2325  142.0183 C   0  0  0  0  0  0  0  0  0  0  0  0
  138.5518  135.1228  142.1724 O   0  0  0  0  0  0  0  0  0  0  0  0
  137.3377  134.6431  141.6161 C   0  0  0  0  0  0  0  0  0  0  0  0
  137.3023  133.4306  141.2633 C   0  0  0  0  0  0  0  0  0  0  0  0
  136.4249  132.4747  140.6898 C   0  0  0  0  0  0  0  0  0  0  0  0
  137.6064  131.7771  137.0095 C   0  0  0  0  0  0  0  0  0  0  0  0
  138.0710  132.6008  135.9336 C   0  0  0  0  0  0  0  0  0  0  0  0
  137.3412  133.0352  134.9371 C   0  0  0  0  0  0  0  0  0  0  0  0
  1  2  1  0
  2  3  1  0
  2  4  1  0
  4  5  1  0
  5  6  2  0
  5  7  1  0
  7  8  1  0
  8  9  1  0
  9 10  2  0
 10 11  1  0
 11 12  2  0
 12 13  1  0
 13 14  1  0
 13 15  2  0
  8 16  1  0
 16 17  2  0
 16 18  2  0
 16 19  1  0
 19 20  2  3
 20 21  1  0
 21 22  2  3
 22 23  1  0
 23 24  1  0
 24 25  1  0
 25 26  2  0
 25 27  1  0
 27 28  2  3
 28 29  1  0
 29 30  2  3
 30 31  1  0
 31 32  1  0
 32 33  2  3
 33 34  1  0
 23 35  2  3
 35 36  1  0
 36 37  2  0
 15  9  1  0
 34 21  1  0
M  END
>  <docking_score>  (3) 
-7.7789999999999999

$$$$
