
     RDKit          3D

 23 25  0  0  0  0  0  0  0  0999 V2000
  122.2172  128.2956  140.0039 O   0  0  0  0  0  0  0  0  0  0  0  0
  121.8817  127.1451  140.4007 C   0  0  0  0  0  0  0  0  0  0  0  0
  123.0098  126.4485  140.9751 N   0  0  0  0  0  0  0  0  0  0  0  0
  123.0918  125.3944  141.9481 C   0  0  0  0  0  0  0  0  0  0  0  0
  124.2894  125.5466  142.6153 C   0  0  0  0  0  0  0  0  0  0  0  0
  124.6257  124.6576  143.6135 C   0  0  0  0  0  0  0  0  0  0  0  0
  126.1519  124.8148  144.4956 Cl  0  0  0  0  0  0  0  0  0  0  0  0
  123.7590  123.6359  143.9241 C   0  0  0  0  0  0  0  0  0  0  0  0
  122.5626  123.5103  143.2347 C   0  0  0  0  0  0  0  0  0  0  0  0
  121.4516  122.2178  143.6178 Cl  0  0  0  0  0  0  0  0  0  0  0  0
  122.2090  124.3857  142.2366 C   0  0  0  0  0  0  0  0  0  0  0  0
  120.5161  126.8020  140.2016 N   0  0  0  0  0  0  0  0  0  0  0  0
  119.7470  125.5587  140.0914 C   0  0  0  0  0  0  0  0  0  0  0  0
  118.6418  125.6078  139.1410 C   0  0  0  0  0  0  0  0  0  0  0  0
  117.5717  124.6481  139.4935 C   0  0  0  0  0  0  0  0  0  0  0  0
  118.7298  123.2726  140.2207 S   0  0  1  0  0  0  0  0  0  0  0  0
  119.9511  124.4473  140.7351 C   0  0  0  0  0  0  0  0  0  0  0  0
  120.9164  123.9563  141.7474 C   0  0  0  0  0  0  0  0  0  0  0  0
  120.4779  122.9073  142.3012 O   0  0  0  0  0  0  0  0  0  0  0  0
  117.9843  122.2368  141.4093 Cl  0  0  0  0  0  0  0  0  0  0  0  0
  119.2200  122.3415  138.6857 N   0  0  0  0  0  2  0  0  0  0  0  0
  120.6113  122.0277  138.9009 C   0  0  0  0  0  0  0  0  0  0  0  0
  121.4578  122.8303  138.1492 F   0  0  0  0  0  0  0  0  0  0  0  0
  1  2  2  0
  2  3  1  0
  3  4  1  0
  4  5  2  0
  5  6  1  0
  6  7  1  0
  6  8  2  0
  8  9  1  0
  9 10  1  0
  9 11  2  0
  2 12  1  0
 12 13  1  0
 13 14  1  0
 14 15  1  0
 15 16  1  0
 16 17  1  0
 17 18  1  0
 18 19  2  0
 16 20  1  1
 16 21  1  0
 21 22  1  0
 22 23  1  0
 11  4  1  0
 18 11  1  0
 13 17  2  0
M  CHG  1  21   1
M  RAD  1  21   3
M  END
>  <docking_score>  (1) 
-7.7439999999999998

$$$$

     RDKit          3D

 23 25  0  0  0  0  0  0  0  0999 V2000
  140.2457  131.2871  134.8910 O   0  0  0  0  0  0  0  0  0  0  0  0
  140.7160  132.0765  135.7566 C   0  0  0  0  0  0  0  0  0  0  0  0
  142.0475  132.5050  135.3942 N   0  0  0  0  0  0  0  0  0  0  0  0
  142.7991  133.6838  135.7262 C   0  0  0  0  0  0  0  0  0  0  0  0
  143.6558  133.9316  134.6740 C   0  0  0  0  0  0  0  0  0  0  0  0
  144.5029  135.0174  134.7324 C   0  0  0  0  0  0  0  0  0  0  0  0
  145.6186  135.3733  133.4054 Cl  0  0  0  0  0  0  0  0  0  0  0  0
  144.4763  135.8322  135.8400 C   0  0  0  0  0  0  0  0  0  0  0  0
  143.6033  135.5558  136.8810 C   0  0  0  0  0  0  0  0  0  0  0  0
  143.5580  136.5816  138.2944 Cl  0  0  0  0  0  0  0  0  0  0  0  0
  142.7512  134.4788  136.8422 C   0  0  0  0  0  0  0  0  0  0  0  0
  139.8613  132.3591  136.8575 N   0  0  0  0  0  0  0  0  0  0  0  0
  140.0376  132.8258  138.2361 C   0  0  0  0  0  0  0  0  0  0  0  0
  139.1187  132.2344  139.2021 C   0  0  0  0  0  0  0  0  0  0  0  0
  138.8960  133.1241  140.3637 C   0  0  0  0  0  0  0  0  0  0  0  0
  140.6803  133.8828  140.4149 S   0  0  1  0  0  0  0  0  0  0  0  0
  140.9109  133.6862  138.6701 C   0  0  0  0  0  0  0  0  0  0  0  0
  141.9992  134.5005  138.0785 C   0  0  0  0  0  0  0  0  0  0  0  0
  142.3302  135.4321  138.8672 O   0  0  0  0  0  0  0  0  0  0  0  0
  140.7820  135.4757  141.1176 Cl  0  0  0  0  0  0  0  0  0  0  0  0
  141.6018  132.6129  141.4160 N   0  0  0  0  0  2  0  0  0  0  0  0
  141.6876  133.2034  142.7292 C   0  0  0  0  0  0  0  0  0  0  0  0
  142.6250  132.5715  143.5340 F   0  0  0  0  0  0  0  0  0  0  0  0
  1  2  2  0
  2  3  1  0
  3  4  1  0
  4  5  2  0
  5  6  1  0
  6  7  1  0
  6  8  2  0
  8  9  1  0
  9 10  1  0
  9 11  2  0
  2 12  1  0
 12 13  1  0
 13 14  1  0
 14 15  1  0
 15 16  1  0
 16 17  1  0
 17 18  1  0
 18 19  2  0
 16 20  1  1
 16 21  1  0
 21 22  1  0
 22 23  1  0
 11  4  1  0
 18 11  1  0
 13 17  2  0
M  CHG  1  21   1
M  RAD  1  21   3
M  END
>  <docking_score>  (2) 
-6.7270000000000003

$$$$
