
     RDKit          3D

 11 11  0  0  0  0  0  0  0  0999 V2000
  139.0212  133.0395  131.8616 O   0  0  0  0  0  0  0  0  0  0  0  0
  138.6491  133.3192  133.0308 C   0  0  0  0  0  0  0  0  0  0  0  0
  139.6723  133.3578  134.0299 N   0  0  0  0  0  0  0  0  0  0  0  0
  140.8020  134.2066  133.8103 C   0  0  0  0  0  0  0  0  0  0  0  0
  142.0760  134.0437  134.2130 C   0  0  0  0  0  0  0  0  0  0  0  0
  142.6072  132.9286  134.9891 C   0  0  0  0  0  0  0  0  0  0  0  0
  143.8788  132.9946  135.3478 C   0  0  0  0  0  0  0  0  0  0  0  0
  144.4504  132.0014  136.0696 F   0  0  0  0  0  0  0  0  0  0  0  0
  139.4935  132.5331  135.1990 C   0  0  0  0  0  0  0  0  0  0  0  0
  140.6068  131.6234  135.4830 C   0  0  0  0  0  0  0  0  0  0  0  0
  141.8939  131.7724  135.4011 N   0  0  0  0  0  0  0  0  0  0  0  0
  1  2  2  0
  2  3  1  0
  3  4  1  0
  4  5  2  0
  5  6  1  0
  6  7  2  3
  7  8  1  0
  3  9  1  0
  9 10  1  0
 10 11  2  0
 11  6  1  0
M  END
>  <docking_score>  (1) 
-4.4139999999999997

$$$$

     RDKit          3D

 11 11  0  0  0  0  0  0  0  0999 V2000
  138.3297  117.6298  132.6512 O   0  0  0  0  0  0  0  0  0  0  0  0
  138.8586  117.3984  133.7694 C   0  0  0  0  0  0  0  0  0  0  0  0
  137.9645  117.0860  134.8416 N   0  0  0  0  0  0  0  0  0  0  0  0
  136.7919  117.8888  135.0016 C   0  0  0  0  0  0  0  0  0  0  0  0
  136.1317  118.2099  136.1298 C   0  0  0  0  0  0  0  0  0  0  0  0
  136.4753  117.7977  137.4862 C   0  0  0  0  0  0  0  0  0  0  0  0
  135.6506  118.1612  138.4546 C   0  0  0  0  0  0  0  0  0  0  0  0
  135.8960  117.8197  139.7419 F   0  0  0  0  0  0  0  0  0  0  0  0
  138.3084  115.9748  135.6937 C   0  0  0  0  0  0  0  0  0  0  0  0
  138.3598  116.2924  137.1234 C   0  0  0  0  0  0  0  0  0  0  0  0
  137.6119  117.0413  137.8752 N   0  0  0  0  0  0  0  0  0  0  0  0
  1  2  2  0
  2  3  1  0
  3  4  1  0
  4  5  2  0
  5  6  1  0
  6  7  2  3
  7  8  1  0
  3  9  1  0
  9 10  1  0
 10 11  2  0
 11  6  1  0
M  END
>  <docking_score>  (2) 
-4.2750000000000004

$$$$

     RDKit          3D

 11 11  0  0  0  0  0  0  0  0999 V2000
  123.5584  126.8371  142.3341 O   0  0  0  0  0  0  0  0  0  0  0  0
  123.7353  126.2976  141.2110 C   0  0  0  0  0  0  0  0  0  0  0  0
  122.6362  126.3596  140.2973 N   0  0  0  0  0  0  0  0  0  0  0  0
  121.9395  127.6007  140.1588 C   0  0  0  0  0  0  0  0  0  0  0  0
  120.6419  127.8176  139.8743 C   0  0  0  0  0  0  0  0  0  0  0  0
  119.6222  126.8022  139.6356 C   0  0  0  0  0  0  0  0  0  0  0  0
  118.4160  127.2264  139.2963 C   0  0  0  0  0  0  0  0  0  0  0  0
  117.4120  126.3495  139.0570 F   0  0  0  0  0  0  0  0  0  0  0  0
  122.3035  125.1583  139.5726 C   0  0  0  0  0  0  0  0  0  0  0  0
  120.9079  124.7307  139.7035 C   0  0  0  0  0  0  0  0  0  0  0  0
  119.7936  125.3962  139.7310 N   0  0  0  0  0  0  0  0  0  0  0  0
  1  2  2  0
  2  3  1  0
  3  4  1  0
  4  5  2  0
  5  6  1  0
  6  7  2  3
  7  8  1  0
  3  9  1  0
  9 10  1  0
 10 11  2  0
 11  6  1  0
M  END
>  <docking_score>  (3) 
-3.9820000000000002

$$$$
