
     RDKit          3D

 24 26  0  0  0  0  0  0  0  0999 V2000
  138.9836  115.4009  138.0417 O   0  0  0  0  0  0  0  0  0  0  0  0
  138.6155  116.0525  137.0227 C   0  0  0  0  0  0  0  0  0  0  0  0
  137.9031  117.2583  136.7652 N   0  0  0  0  0  0  0  0  0  0  0  0
  136.9690  117.9623  137.5899 C   0  0  0  0  0  0  0  0  0  0  0  0
  135.9323  117.3396  138.2148 C   0  0  0  0  0  0  0  0  0  0  0  0
  135.0208  117.9832  139.0062 C   0  0  0  0  0  0  0  0  0  0  0  0
  135.1361  119.3536  139.2007 C   0  0  0  0  0  0  0  0  0  0  0  0
  134.2249  119.9751  139.9875 F   0  0  0  0  0  0  0  0  0  0  0  0
  136.1779  120.0031  138.5775 C   0  0  0  0  0  0  0  0  0  0  0  0
  136.2872  121.7457  138.8492 Cl  0  0  0  0  0  0  0  0  0  0  0  0
  137.0826  119.3317  137.7859 C   0  0  0  0  0  0  0  0  0  0  0  0
  138.5311  117.3392  135.4975 C   0  0  2  0  0  0  0  0  0  0  0  0
  137.6936  117.6489  134.3119 C   0  0  0  0  0  0  0  0  0  0  0  0
  136.3322  117.6551  134.3908 C   0  0  0  0  0  0  0  0  0  0  0  0
  135.5726  117.9401  133.2893 C   0  0  0  0  0  0  0  0  0  0  0  0
  136.2153  118.2187  132.1079 C   0  0  0  0  0  0  0  0  0  0  0  0
  137.5918  118.2063  132.0535 C   0  0  0  0  0  0  0  0  0  0  0  0
  138.3020  117.9227  133.1540 N   0  0  0  0  0  0  0  0  0  0  0  0
  138.7597  115.8594  135.5769 C   0  0  2  0  0  0  0  0  0  0  0  0
  137.6389  115.0917  134.9661 C   0  0  0  0  0  0  0  0  0  0  0  0
  138.1449  113.9982  134.0241 C   0  0  0  0  0  0  0  0  0  0  0  0
  137.1129  113.7580  133.0665 N   0  0  0  0  0  0  0  0  0  0  0  0
  137.1218  112.1894  132.3728 Cl  0  0  0  0  0  0  0  0  0  0  0  0
  135.5523  114.3319  133.4993 Cl  0  0  0  0  0  0  0  0  0  0  0  0
  1  2  2  0
  2  3  1  0
  3  4  1  0
  4  5  2  0
  5  6  1  0
  6  7  2  0
  7  8  1  0
  7  9  1  0
  9 10  1  0
  9 11  2  0
  3 12  1  0
 12 13  1  6
 13 14  2  0
 14 15  1  0
 15 16  2  0
 16 17  1  0
 17 18  2  0
 12 19  1  0
 19 20  1  6
 20 21  1  0
 21 22  1  0
 22 23  1  0
 22 24  1  0
 19  2  1  0
 11  4  1  0
 18 13  1  0
M  END
>  <docking_score>  (1) 
-6.8479999999999999

$$$$

     RDKit          3D

 24 26  0  0  0  0  0  0  0  0999 V2000
  128.9952  132.4309  144.1645 O   0  0  0  0  0  0  0  0  0  0  0  0
  128.8642  132.4474  142.9072 C   0  0  0  0  0  0  0  0  0  0  0  0
  128.5419  131.5083  141.8864 N   0  0  0  0  0  0  0  0  0  0  0  0
  128.6609  130.0822  141.8853 C   0  0  0  0  0  0  0  0  0  0  0  0
  127.7283  129.2718  141.3139 C   0  0  0  0  0  0  0  0  0  0  0  0
  127.8103  127.9063  141.2986 C   0  0  0  0  0  0  0  0  0  0  0  0
  128.8994  127.2834  141.8945 C   0  0  0  0  0  0  0  0  0  0  0  0
  128.9647  125.9303  141.8702 F   0  0  0  0  0  0  0  0  0  0  0  0
  129.8545  128.0848  142.4785 C   0  0  0  0  0  0  0  0  0  0  0  0
  131.2219  127.2526  143.2270 Cl  0  0  0  0  0  0  0  0  0  0  0  0
  129.7486  129.4575  142.4800 C   0  0  0  0  0  0  0  0  0  0  0  0
  128.1184  132.5780  141.0590 C   0  0  2  0  0  0  0  0  0  0  0  0
  128.5712  132.6010  139.6457 C   0  0  0  0  0  0  0  0  0  0  0  0
  128.0706  133.5070  138.7581 C   0  0  0  0  0  0  0  0  0  0  0  0
  128.4955  133.5153  137.4577 C   0  0  0  0  0  0  0  0  0  0  0  0
  129.4354  132.5908  137.0726 C   0  0  0  0  0  0  0  0  0  0  0  0
  129.9262  131.6857  137.9879 C   0  0  0  0  0  0  0  0  0  0  0  0
  129.4857  131.7090  139.2534 N   0  0  0  0  0  0  0  0  0  0  0  0
  128.9877  133.4842  141.8785 C   0  0  2  0  0  0  0  0  0  0  0  0
  130.3606  133.5972  141.3118 C   0  0  0  0  0  0  0  0  0  0  0  0
  130.8034  135.0551  141.1793 C   0  0  0  0  0  0  0  0  0  0  0  0
  130.9394  135.3277  139.7840 N   0  0  0  0  0  0  0  0  0  0  0  0
  130.9078  136.9911  139.3664 Cl  0  0  0  0  0  0  0  0  0  0  0  0
  132.1423  134.4147  138.9644 Cl  0  0  0  0  0  0  0  0  0  0  0  0
  1  2  2  0
  2  3  1  0
  3  4  1  0
  4  5  2  0
  5  6  1  0
  6  7  2  0
  7  8  1  0
  7  9  1  0
  9 10  1  0
  9 11  2  0
  3 12  1  0
 12 13  1  6
 13 14  2  0
 14 15  1  0
 15 16  2  0
 16 17  1  0
 17 18  2  0
 12 19  1  0
 19 20  1  6
 20 21  1  0
 21 22  1  0
 22 23  1  0
 22 24  1  0
 19  2  1  0
 11  4  1  0
 18 13  1  0
M  END
>  <docking_score>  (2) 
-6.0970000000000004

$$$$

     RDKit          3D

 24 26  0  0  0  0  0  0  0  0999 V2000
  126.2329  140.9676  145.7488 O   0  0  0  0  0  0  0  0  0  0  0  0
  126.8626  140.9695  144.6525 C   0  0  0  0  0  0  0  0  0  0  0  0
  127.7135  140.0736  143.9446 N   0  0  0  0  0  0  0  0  0  0  0  0
  128.5084  138.9887  144.4337 C   0  0  0  0  0  0  0  0  0  0  0  0
  129.1870  139.0536  145.6119 C   0  0  0  0  0  0  0  0  0  0  0  0
  129.9576  138.0368  146.1057 C   0  0  0  0  0  0  0  0  0  0  0  0
  130.0720  136.8567  145.3822 C   0  0  0  0  0  0  0  0  0  0  0  0
  130.8391  135.8599  145.8860 F   0  0  0  0  0  0  0  0  0  0  0  0
  129.3935  136.7701  144.1874 C   0  0  0  0  0  0  0  0  0  0  0  0
  129.5675  135.2533  143.2977 Cl  0  0  0  0  0  0  0  0  0  0  0  0
  128.6239  137.8083  143.7125 C   0  0  0  0  0  0  0  0  0  0  0  0
  127.3774  140.7348  142.7371 C   0  0  2  0  0  0  0  0  0  0  0  0
  128.4703  141.0912  141.7982 C   0  0  0  0  0  0  0  0  0  0  0  0
  128.2225  141.8085  140.6652 C   0  0  0  0  0  0  0  0  0  0  0  0
  129.2393  142.1281  139.8075 C   0  0  0  0  0  0  0  0  0  0  0  0
  130.5101  141.7092  140.1173 C   0  0  0  0  0  0  0  0  0  0  0  0
  130.7352  140.9859  141.2680 C   0  0  0  0  0  0  0  0  0  0  0  0
  129.7133  140.6923  142.0839 N   0  0  0  0  0  0  0  0  0  0  0  0
  127.0119  141.9343  143.5592 C   0  0  2  0  0  0  0  0  0  0  0  0
  128.1670  142.8578  143.7365 C   0  0  0  0  0  0  0  0  0  0  0  0
  127.7476  144.3236  143.6150 C   0  0  0  0  0  0  0  0  0  0  0  0
  128.9445  145.0959  143.5122 N   0  0  0  0  0  0  0  0  0  0  0  0
  130.2546  144.2992  142.7433 Cl  0  0  0  0  0  0  0  0  0  0  0  0
  128.7317  146.7323  143.0334 Cl  0  0  0  0  0  0  0  0  0  0  0  0
  1  2  2  0
  2  3  1  0
  3  4  1  0
  4  5  2  0
  5  6  1  0
  6  7  2  0
  7  8  1  0
  7  9  1  0
  9 10  1  0
  9 11  2  0
  3 12  1  0
 12 13  1  6
 13 14  2  0
 14 15  1  0
 15 16  2  0
 16 17  1  0
 17 18  2  0
 12 19  1  0
 19 20  1  1
 20 21  1  0
 21 22  1  0
 22 23  1  0
 22 24  1  0
 19  2  1  0
 11  4  1  0
 18 13  1  0
M  END
>  <docking_score>  (3) 
-6.0060000000000002

$$$$
