
     RDKit          3D

 20 22  0  0  0  0  0  0  0  0999 V2000
  121.9537  127.9558  140.0993 O   0  0  0  0  0  0  0  0  0  0  0  0
  121.8389  126.7966  140.5150 C   0  0  0  0  0  0  0  0  0  0  0  0
  122.7809  126.5526  141.5797 N   0  0  0  0  0  0  0  0  0  0  0  0
  123.1089  125.4222  142.3950 C   0  0  0  0  0  0  0  0  0  0  0  0
  124.3527  125.6707  142.9478 C   0  0  0  0  0  0  0  0  0  0  0  0
  124.9530  124.7601  143.7916 C   0  0  0  0  0  0  0  0  0  0  0  0
  126.5373  125.0805  144.4936 Cl  0  0  0  0  0  0  0  0  0  0  0  0
  124.2650  123.5959  144.0604 C   0  0  0  0  0  0  0  0  0  0  0  0
  123.0111  123.3498  143.5007 C   0  0  0  0  0  0  0  0  0  0  0  0
  122.1294  121.8726  143.8371 Cl  0  0  0  0  0  0  0  0  0  0  0  0
  122.4141  124.2621  142.6579 C   0  0  0  0  0  0  0  0  0  0  0  0
  120.8486  125.9869  139.8844 N   0  0  0  0  0  0  0  0  0  0  0  0
  119.9717  124.9383  140.3488 C   0  0  0  0  0  0  0  0  0  0  0  0
  118.6662  124.8068  139.6637 C   0  0  0  0  0  0  0  0  0  0  0  0
  118.1333  123.4396  140.0696 C   0  0  2  0  0  0  0  0  0  0  0  0
  118.8670  123.1606  141.3735 C   0  0  0  0  0  0  0  0  0  0  0  0
  120.0684  124.0213  141.2918 C   0  0  0  0  0  0  0  0  0  0  0  0
  121.1271  123.7066  142.2529 C   0  0  0  0  0  0  0  0  0  0  0  0
  120.8551  122.6766  142.9097 O   0  0  0  0  0  0  0  0  0  0  0  0
  118.6615  122.1813  138.9099 Cl  0  0  0  0  0  0  0  0  0  0  0  0
  1  2  2  0
  2  3  1  0
  3  4  1  0
  4  5  2  0
  5  6  1  0
  6  7  1  0
  6  8  2  0
  8  9  1  0
  9 10  1  0
  9 11  2  0
  2 12  1  0
 12 13  1  0
 13 14  1  0
 14 15  1  0
 15 16  1  0
 16 17  1  0
 17 18  1  0
 18 19  2  0
 15 20  1  6
 11  4  1  0
 18 11  1  0
 13 17  2  0
M  END
>  <docking_score>  (1) 
-7.7789999999999999

$$$$

     RDKit          3D

 20 22  0  0  0  0  0  0  0  0999 V2000
  120.7419  121.1582  143.5396 O   0  0  0  0  0  0  0  0  0  0  0  0
  121.2499  122.2028  143.1148 C   0  0  0  0  0  0  0  0  0  0  0  0
  120.3040  122.9206  142.2958 N   0  0  0  0  0  0  0  0  0  0  0  0
  120.3426  124.1396  141.5457 C   0  0  0  0  0  0  0  0  0  0  0  0
  119.2870  124.0970  140.6521 C   0  0  0  0  0  0  0  0  0  0  0  0
  119.0506  125.1365  139.7775 C   0  0  0  0  0  0  0  0  0  0  0  0
  117.7050  125.0785  138.6411 Cl  0  0  0  0  0  0  0  0  0  0  0  0
  119.9067  126.2160  139.8300 C   0  0  0  0  0  0  0  0  0  0  0  0
  120.9697  126.2544  140.7326 C   0  0  0  0  0  0  0  0  0  0  0  0
  122.0628  127.6227  140.8061 Cl  0  0  0  0  0  0  0  0  0  0  0  0
  121.2029  125.2137  141.6054 C   0  0  0  0  0  0  0  0  0  0  0  0
  122.5966  122.4631  143.5053 N   0  0  0  0  0  0  0  0  0  0  0  0
  123.3364  123.6675  143.7989 C   0  0  0  0  0  0  0  0  0  0  0  0
  124.4311  123.5545  144.7888 C   0  0  0  0  0  0  0  0  0  0  0  0
  125.2582  124.8220  144.6223 C   0  0  2  0  0  0  0  0  0  0  0  0
  124.2708  125.7936  143.9922 C   0  0  0  0  0  0  0  0  0  0  0  0
  123.2598  124.9114  143.3672 C   0  0  0  0  0  0  0  0  0  0  0  0
  122.3743  125.5646  142.4015 C   0  0  0  0  0  0  0  0  0  0  0  0
  122.7141  126.7525  142.2021 O   0  0  0  0  0  0  0  0  0  0  0  0
  126.5647  124.5756  143.4226 Cl  0  0  0  0  0  0  0  0  0  0  0  0
  1  2  2  0
  2  3  1  0
  3  4  1  0
  4  5  2  0
  5  6  1  0
  6  7  1  0
  6  8  2  0
  8  9  1  0
  9 10  1  0
  9 11  2  0
  2 12  1  0
 12 13  1  0
 13 14  1  0
 14 15  1  0
 15 16  1  0
 16 17  1  0
 17 18  1  0
 18 19  2  0
 15 20  1  6
 11  4  1  0
 18 11  1  0
 13 17  2  0
M  END
>  <docking_score>  (2) 
-7.7380000000000004

$$$$
