
     RDKit          3D

 20 21  0  0  0  0  0  0  0  0999 V2000
  121.5385  127.9887  140.2721 O   0  0  0  0  0  0  0  0  0  0  0  0
  121.6403  126.7613  140.6714 C   0  0  0  0  0  0  0  0  0  0  0  0
  121.7006  126.5566  142.0281 N   0  0  0  0  0  0  0  0  0  0  0  0
  122.3479  125.6049  142.8503 C   0  0  0  0  0  0  0  0  0  0  0  0
  123.1865  126.0142  143.9079 C   0  0  0  0  0  0  0  0  0  0  0  0
  123.8476  125.1822  144.7432 C   0  0  0  0  0  0  0  0  0  0  0  0
  124.8570  125.8622  146.0163 Cl  0  0  0  0  0  0  0  0  0  0  0  0
  123.7337  123.8256  144.6008 C   0  0  0  0  0  0  0  0  0  0  0  0
  122.9242  123.3674  143.5802 C   0  0  0  0  0  0  0  0  0  0  0  0
  122.8471  122.0077  143.4743 F   0  0  0  0  0  0  0  0  0  0  0  0
  122.2403  124.2333  142.7172 C   0  0  0  0  0  0  0  0  0  0  0  0
  121.6800  125.7655  139.7030 N   0  0  0  0  0  0  0  0  0  0  0  0
  120.6447  124.9751  139.1193 C   0  0  0  0  0  0  0  0  0  0  0  0
  121.2123  123.6204  138.7603 C   0  0  0  0  0  0  0  0  0  0  0  0
  120.2080  122.6227  139.2181 C   0  0  0  0  0  0  0  0  0  0  0  0
  119.4219  122.9535  140.4355 C   0  0  0  0  0  0  0  0  0  0  0  0
  120.0905  124.0529  141.2394 C   0  0  0  0  0  0  0  0  0  0  0  0
  121.4244  123.5722  141.7112 C   0  0  0  0  0  0  0  0  0  0  0  0
  121.8592  122.5132  141.1880 O   0  0  0  0  0  0  0  0  0  0  0  0
  120.0104  121.5767  138.6515 O   0  0  0  0  0  0  0  0  0  0  0  0
  1  2  2  0
  2  3  1  0
  3  4  1  0
  4  5  2  0
  5  6  1  0
  6  7  1  0
  6  8  2  0
  8  9  1  0
  9 10  1  0
  9 11  2  0
  2 12  1  0
 12 13  1  0
 13 14  1  0
 14 15  1  0
 15 16  1  0
 16 17  1  0
 17 18  1  0
 18 19  2  0
 15 20  2  0
 11  4  1  0
 18 11  1  0
M  END
>  <docking_score>  (1) 
-7.5549999999999997

$$$$

     RDKit          3D

 20 21  0  0  0  0  0  0  0  0999 V2000
  143.3781  136.1837  137.1890 O   0  0  0  0  0  0  0  0  0  0  0  0
  142.4121  135.3297  137.3070 C   0  0  0  0  0  0  0  0  0  0  0  0
  142.1870  134.5005  136.2356 N   0  0  0  0  0  0  0  0  0  0  0  0
  141.0309  133.9022  135.6822 C   0  0  0  0  0  0  0  0  0  0  0  0
  140.7174  134.0618  134.3163 C   0  0  0  0  0  0  0  0  0  0  0  0
  139.6378  133.5326  133.6989 C   0  0  0  0  0  0  0  0  0  0  0  0
  139.3954  133.8308  131.9801 Cl  0  0  0  0  0  0  0  0  0  0  0  0
  138.7424  132.7730  134.4024 C   0  0  0  0  0  0  0  0  0  0  0  0
  138.9996  132.5829  135.7457 C   0  0  0  0  0  0  0  0  0  0  0  0
  138.0754  131.8239  136.4060 F   0  0  0  0  0  0  0  0  0  0  0  0
  140.1201  133.1328  136.3815 C   0  0  0  0  0  0  0  0  0  0  0  0
  141.6922  135.3250  138.4956 N   0  0  0  0  0  0  0  0  0  0  0  0
  141.8548  134.5672  139.6943 C   0  0  0  0  0  0  0  0  0  0  0  0
  140.4945  134.3449  140.3160 C   0  0  0  0  0  0  0  0  0  0  0  0
  140.4586  132.9128  140.7180 C   0  0  0  0  0  0  0  0  0  0  0  0
  141.2093  131.9470  139.8736 C   0  0  0  0  0  0  0  0  0  0  0  0
  141.5178  132.5340  138.5089 C   0  0  0  0  0  0  0  0  0  0  0  0
  140.2350  132.8158  137.7961 C   0  0  0  0  0  0  0  0  0  0  0  0
  139.1843  132.7706  138.4875 O   0  0  0  0  0  0  0  0  0  0  0  0
  139.8563  132.5125  141.6830 O   0  0  0  0  0  0  0  0  0  0  0  0
  1  2  2  0
  2  3  1  0
  3  4  1  0
  4  5  2  0
  5  6  1  0
  6  7  1  0
  6  8  2  0
  8  9  1  0
  9 10  1  0
  9 11  2  0
  2 12  1  0
 12 13  1  0
 13 14  1  0
 14 15  1  0
 15 16  1  0
 16 17  1  0
 17 18  1  0
 18 19  2  0
 15 20  2  0
 11  4  1  0
 18 11  1  0
M  END
>  <docking_score>  (2) 
-7.0659999999999998

$$$$

     RDKit          3D

 20 21  0  0  0  0  0  0  0  0999 V2000
  139.6781  113.5596  138.1882 O   0  0  0  0  0  0  0  0  0  0  0  0
  139.1354  114.3032  137.2779 C   0  0  0  0  0  0  0  0  0  0  0  0
  139.0011  115.6383  137.5706 N   0  0  0  0  0  0  0  0  0  0  0  0
  138.0495  116.6279  137.2302 C   0  0  0  0  0  0  0  0  0  0  0  0
  137.4146  117.3948  138.2292 C   0  0  0  0  0  0  0  0  0  0  0  0
  136.4938  118.3580  138.0030 C   0  0  0  0  0  0  0  0  0  0  0  0
  135.7978  119.2232  139.3702 Cl  0  0  0  0  0  0  0  0  0  0  0  0
  136.1063  118.6575  136.7248 C   0  0  0  0  0  0  0  0  0  0  0  0
  136.6963  117.9371  135.7051 C   0  0  0  0  0  0  0  0  0  0  0  0
  136.2733  118.2674  134.4489 F   0  0  0  0  0  0  0  0  0  0  0  0
  137.6507  116.9401  135.9440 C   0  0  0  0  0  0  0  0  0  0  0  0
  138.7385  113.6933  136.0940 N   0  0  0  0  0  0  0  0  0  0  0  0
  139.4166  113.5155  134.8506 C   0  0  0  0  0  0  0  0  0  0  0  0
  138.3957  113.5259  133.7353 C   0  0  0  0  0  0  0  0  0  0  0  0
  138.9667  114.3905  132.6674 C   0  0  0  0  0  0  0  0  0  0  0  0
  139.8159  115.5331  133.0945 C   0  0  0  0  0  0  0  0  0  0  0  0
  139.5913  115.8683  134.5571 C   0  0  0  0  0  0  0  0  0  0  0  0
  138.1727  116.2969  134.7487 C   0  0  0  0  0  0  0  0  0  0  0  0
  137.3836  116.0775  133.7930 O   0  0  0  0  0  0  0  0  0  0  0  0
  138.7714  114.2043  131.4921 O   0  0  0  0  0  0  0  0  0  0  0  0
  1  2  2  0
  2  3  1  0
  3  4  1  0
  4  5  2  0
  5  6  1  0
  6  7  1  0
  6  8  2  0
  8  9  1  0
  9 10  1  0
  9 11  2  0
  2 12  1  0
 12 13  1  0
 13 14  1  0
 14 15  1  0
 15 16  1  0
 16 17  1  0
 17 18  1  0
 18 19  2  0
 15 20  2  0
 11  4  1  0
 18 11  1  0
M  END
>  <docking_score>  (3) 
-7.0140000000000002

$$$$
