
     RDKit          3D

 25 27  0  0  0  0  0  0  0  0999 V2000
  124.1303  123.7850  144.1012 C   0  0  0  0  0  0  0  0  0  0  0  0
  122.9994  124.2380  143.2208 C   0  0  0  0  0  0  0  0  0  0  0  0
  123.5877  125.6268  143.1887 C   0  0  2  0  0  0  0  0  0  0  0  0
  123.9407  125.9844  141.7498 C   0  0  0  0  0  0  0  0  0  0  0  0
  124.7697  125.1539  144.0121 C   0  0  2  0  0  0  0  0  0  0  0  0
  125.9728  125.2009  143.2141 N   0  0  0  0  0  0  0  0  0  0  0  0
  127.2738  125.3802  143.7447 C   0  0  0  0  0  0  0  0  0  0  0  0
  127.4168  125.5090  144.9844 O   0  0  0  0  0  0  0  0  0  0  0  0
  128.4193  125.4196  142.9178 N   0  0  0  0  0  0  0  0  0  0  0  0
  128.6878  124.3244  142.0301 C   0  0  0  0  0  0  0  0  0  0  0  0
  130.1741  124.4168  141.6663 C   0  0  0  0  0  0  0  0  0  0  0  0
  130.3423  125.6818  140.8658 C   0  0  0  0  0  0  0  0  0  0  0  0
  129.5904  126.8549  141.4409 C   0  0  0  0  0  0  0  0  0  0  0  0
  129.3522  126.5343  142.9223 C   0  0  0  0  0  0  0  0  0  0  0  0
  130.1553  125.4342  139.3907 C   0  0  0  0  0  0  0  0  0  0  0  0
  131.2304  126.3753  139.1526 N   0  0  0  0  0  0  0  0  0  0  0  0
  130.6924  127.7246  139.1432 C   0  0  0  0  0  0  0  0  0  0  0  0
  131.7315  128.7910  139.2265 C   0  0  0  0  0  0  0  0  0  0  0  0
  129.6681  127.9332  138.0707 C   0  0  0  0  0  0  0  0  0  0  0  0
  131.7260  126.0703  140.4781 C   0  0  2  0  0  0  0  0  0  0  0  0
  132.7417  125.0007  140.5504 C   0  0  0  0  0  0  0  0  0  0  0  0
  134.0129  125.2728  140.3370 C   0  0  0  0  0  0  0  0  0  0  0  0
  134.9863  124.1712  140.4212 C   0  0  0  0  0  0  0  0  0  0  0  0
  135.8097  123.9541  139.4323 C   0  0  0  0  0  0  0  0  0  0  0  0
  135.7803  124.9449  138.0095 Cl  0  0  0  0  0  0  0  0  0  0  0  0
  1  2  1  0
  2  3  1  0
  3  4  1  6
  3  5  1  0
  5  6  1  6
  6  7  1  0
  7  8  2  0
  7  9  1  0
  9 10  1  0
 10 11  1  0
 11 12  1  0
 12 13  1  0
 13 14  1  0
 12 15  1  0
 15 16  1  0
 16 17  1  0
 17 18  1  0
 17 19  1  0
 20 16  1  6
 20 21  1  0
 21 22  2  3
 22 23  1  0
 23 24  2  3
 24 25  1  0
  5  1  1  0
 14  9  1  0
 20 12  1  0
M  END
>  <docking_score>  (1) 
-6.6769999999999996

$$$$

     RDKit          3D

 25 27  0  0  0  0  0  0  0  0999 V2000
  145.8902  131.7493  134.8609 C   0  0  0  0  0  0  0  0  0  0  0  0
  146.2163  132.9572  134.0278 C   0  0  0  0  0  0  0  0  0  0  0  0
  144.7426  133.2308  133.8571 C   0  0  2  0  0  0  0  0  0  0  0  0
  144.4154  134.5901  134.4640 C   0  0  0  0  0  0  0  0  0  0  0  0
  144.4122  132.0589  134.7604 C   0  0  2  0  0  0  0  0  0  0  0  0
  143.8171  132.5378  135.9864 N   0  0  0  0  0  0  0  0  0  0  0  0
  142.4847  132.2670  136.3837 C   0  0  0  0  0  0  0  0  0  0  0  0
  141.7543  131.5687  135.6402 O   0  0  0  0  0  0  0  0  0  0  0  0
  141.9510  132.7616  137.5952 N   0  0  0  0  0  0  0  0  0  0  0  0
  141.9458  131.9227  138.7596 C   0  0  0  0  0  0  0  0  0  0  0  0
  140.9038  132.5153  139.7152 C   0  0  0  0  0  0  0  0  0  0  0  0
  141.4308  133.8594  140.1451 C   0  0  0  0  0  0  0  0  0  0  0  0
  142.0149  134.6609  139.0099 C   0  0  0  0  0  0  0  0  0  0  0  0
  141.3997  134.1008  137.7208 C   0  0  0  0  0  0  0  0  0  0  0  0
  142.2806  133.7515  141.3854 C   0  0  0  0  0  0  0  0  0  0  0  0
  141.6965  135.0012  141.8274 N   0  0  0  0  0  0  0  0  0  0  0  0
  142.4332  136.1078  141.2419 C   0  0  0  0  0  0  0  0  0  0  0  0
  141.7001  137.4060  141.2719 C   0  0  0  0  0  0  0  0  0  0  0  0
  143.8503  136.1795  141.7213 C   0  0  0  0  0  0  0  0  0  0  0  0
  140.5486  134.7023  140.9978 C   0  0  2  0  0  0  0  0  0  0  0  0
  139.4382  133.9995  141.6717 C   0  0  0  0  0  0  0  0  0  0  0  0
  138.2049  134.1177  141.2242 C   0  0  0  0  0  0  0  0  0  0  0  0
  137.1336  133.3965  141.9312 C   0  0  0  0  0  0  0  0  0  0  0  0
  136.2316  132.7426  141.2516 C   0  0  0  0  0  0  0  0  0  0  0  0
  136.2697  132.7059  139.5183 Cl  0  0  0  0  0  0  0  0  0  0  0  0
  1  2  1  0
  2  3  1  0
  3  4  1  1
  3  5  1  0
  5  6  1  1
  6  7  1  0
  7  8  2  0
  7  9  1  0
  9 10  1  0
 10 11  1  0
 11 12  1  0
 12 13  1  0
 13 14  1  0
 12 15  1  0
 15 16  1  0
 16 17  1  0
 17 18  1  0
 17 19  1  0
 20 16  1  1
 20 21  1  0
 21 22  2  3
 22 23  1  0
 23 24  2  3
 24 25  1  0
  5  1  1  0
 14  9  1  0
 20 12  1  0
M  END
>  <docking_score>  (2) 
-6.6280000000000001

$$$$

     RDKit          3D

 25 27  0  0  0  0  0  0  0  0999 V2000
  133.4541  132.8215  136.4244 C   0  0  0  0  0  0  0  0  0  0  0  0
  132.0324  133.1533  136.0670 C   0  0  0  0  0  0  0  0  0  0  0  0
  131.9024  131.8218  135.3698 C   0  0  2  0  0  0  0  0  0  0  0  0
  130.8147  131.0046  136.0569 C   0  0  0  0  0  0  0  0  0  0  0  0
  133.3099  131.4525  135.7953 C   0  0  2  0  0  0  0  0  0  0  0  0
  133.2654  130.3617  136.7412 N   0  0  0  0  0  0  0  0  0  0  0  0
  133.7852  129.0682  136.4901 C   0  0  0  0  0  0  0  0  0  0  0  0
  134.3237  128.8294  135.3824 O   0  0  0  0  0  0  0  0  0  0  0  0
  133.7148  128.0349  137.4516 N   0  0  0  0  0  0  0  0  0  0  0  0
  134.6471  128.0202  138.5425 C   0  0  0  0  0  0  0  0  0  0  0  0
  134.6480  126.5889  139.0917 C   0  0  0  0  0  0  0  0  0  0  0  0
  133.2811  126.3539  139.6795 C   0  0  0  0  0  0  0  0  0  0  0  0
  132.1626  126.8715  138.8117 C   0  0  0  0  0  0  0  0  0  0  0  0
  132.7269  126.9704  137.3884 C   0  0  0  0  0  0  0  0  0  0  0  0
  133.2272  126.7470  141.1337 C   0  0  0  0  0  0  0  0  0  0  0  0
  132.3787  125.5944  141.3569 N   0  0  0  0  0  0  0  0  0  0  0  0
  131.0018  125.9485  141.0591 C   0  0  0  0  0  0  0  0  0  0  0  0
  130.1098  124.7745  140.8361 C   0  0  0  0  0  0  0  0  0  0  0  0
  130.4530  126.9810  141.9950 C   0  0  0  0  0  0  0  0  0  0  0  0
  132.9774  124.9877  140.1869 C   0  0  2  0  0  0  0  0  0  0  0  0
  134.1441  124.1194  140.4430 C   0  0  0  0  0  0  0  0  0  0  0  0
  134.3132  123.0094  139.7541 C   0  0  0  0  0  0  0  0  0  0  0  0
  135.4929  122.1785  140.0473 C   0  0  0  0  0  0  0  0  0  0  0  0
  135.3388  120.9306  140.3967 C   0  0  0  0  0  0  0  0  0  0  0  0
  133.7597  120.2255  140.5235 Cl  0  0  0  0  0  0  0  0  0  0  0  0
  1  2  1  0
  2  3  1  0
  3  4  1  1
  3  5  1  0
  5  6  1  1
  6  7  1  0
  7  8  2  0
  7  9  1  0
  9 10  1  0
 10 11  1  0
 11 12  1  0
 12 13  1  0
 13 14  1  0
 12 15  1  0
 15 16  1  0
 16 17  1  0
 17 18  1  0
 17 19  1  0
 20 16  1  1
 20 21  1  0
 21 22  2  3
 22 23  1  0
 23 24  2  3
 24 25  1  0
  5  1  1  0
 14  9  1  0
 20 12  1  0
M  END
>  <docking_score>  (3) 
-6.3410000000000002

$$$$
