
     RDKit          3D

 20 22  0  0  0  0  0  0  0  0999 V2000
  121.7071  121.1503  143.8832 O   0  0  0  0  0  0  0  0  0  0  0  0
  122.0421  122.2492  143.3860 C   0  0  0  0  0  0  0  0  0  0  0  0
  121.2050  122.7232  142.3322 N   0  0  0  0  0  0  0  0  0  0  0  0
  121.0324  123.9276  141.5912 C   0  0  0  0  0  0  0  0  0  0  0  0
  119.8850  123.7765  140.8451 C   0  0  0  0  0  0  0  0  0  0  0  0
  119.4547  124.7950  140.0147 C   0  0  0  0  0  0  0  0  0  0  0  0
  117.9925  124.5806  139.0750 Cl  0  0  0  0  0  0  0  0  0  0  0  0
  120.2090  125.9481  139.9655 C   0  0  0  0  0  0  0  0  0  0  0  0
  121.3558  126.0956  140.7130 C   0  0  0  0  0  0  0  0  0  0  0  0
  122.1160  127.2152  140.6853 F   0  0  0  0  0  0  0  0  0  0  0  0
  121.7941  125.0755  141.5500 C   0  0  0  0  0  0  0  0  0  0  0  0
  123.2060  122.7957  143.9917 N   0  0  0  0  0  0  0  0  0  0  0  0
  124.0923  123.8832  143.7503 C   0  0  0  0  0  0  0  0  0  0  0  0
  125.3885  123.7825  144.4763 C   0  0  0  0  0  0  0  0  0  0  0  0
  125.8382  125.2585  144.5497 C   0  0  1  0  0  0  0  0  0  0  0  0
  125.3227  125.7177  143.2104 C   0  0  0  0  0  0  0  0  0  0  0  0
  124.0610  124.9895  143.0462 C   0  0  0  0  0  0  0  0  0  0  0  0
  123.0152  125.5693  142.1734 C   0  0  0  0  0  0  0  0  0  0  0  0
  123.2704  126.7579  141.9370 O   0  0  0  0  0  0  0  0  0  0  0  0
  124.9952  125.8365  145.5100 F   0  0  0  0  0  0  0  0  0  0  0  0
  1  2  2  0
  2  3  1  0
  3  4  1  0
  4  5  2  0
  5  6  1  0
  6  7  1  0
  6  8  2  0
  8  9  1  0
  9 10  1  0
  9 11  2  0
  2 12  1  0
 12 13  1  0
 13 14  1  0
 14 15  1  0
 15 16  1  0
 16 17  1  0
 17 18  1  0
 18 19  2  0
 15 20  1  1
 11  4  1  0
 18 11  1  0
 13 17  2  0
M  END
>  <docking_score>  (1) 
-7.3819999999999997

$$$$

     RDKit          3D

 20 22  0  0  0  0  0  0  0  0999 V2000
  119.9365  121.9173  143.0658 O   0  0  0  0  0  0  0  0  0  0  0  0
  120.3313  122.9612  142.4989 C   0  0  0  0  0  0  0  0  0  0  0  0
  121.5861  123.4657  142.9533 N   0  0  0  0  0  0  0  0  0  0  0  0
  122.5279  124.4545  142.5473 C   0  0  0  0  0  0  0  0  0  0  0  0
  123.6488  124.2829  143.3285 C   0  0  0  0  0  0  0  0  0  0  0  0
  124.7465  125.1074  143.1626 C   0  0  0  0  0  0  0  0  0  0  0  0
  126.1611  124.8708  144.1675 Cl  0  0  0  0  0  0  0  0  0  0  0  0
  124.6735  126.0912  142.1994 C   0  0  0  0  0  0  0  0  0  0  0  0
  123.5510  126.2597  141.4201 C   0  0  0  0  0  0  0  0  0  0  0  0
  123.4506  127.2160  140.4675 F   0  0  0  0  0  0  0  0  0  0  0  0
  122.4439  125.4343  141.5817 C   0  0  0  0  0  0  0  0  0  0  0  0
  119.4254  123.4252  141.5067 N   0  0  0  0  0  0  0  0  0  0  0  0
  119.2766  124.5838  140.6930 C   0  0  0  0  0  0  0  0  0  0  0  0
  117.9235  124.7317  140.0893 C   0  0  0  0  0  0  0  0  0  0  0  0
  118.2101  125.6166  138.8560 C   0  0  1  0  0  0  0  0  0  0  0  0
  119.2872  126.4874  139.4494 C   0  0  0  0  0  0  0  0  0  0  0  0
  120.0445  125.5772  140.3137 C   0  0  0  0  0  0  0  0  0  0  0  0
  121.4607  125.8921  140.6084 C   0  0  0  0  0  0  0  0  0  0  0  0
  121.8768  126.7531  139.8213 O   0  0  0  0  0  0  0  0  0  0  0  0
  118.8558  124.7616  137.9511 F   0  0  0  0  0  0  0  0  0  0  0  0
  1  2  2  0
  2  3  1  0
  3  4  1  0
  4  5  2  0
  5  6  1  0
  6  7  1  0
  6  8  2  0
  8  9  1  0
  9 10  1  0
  9 11  2  0
  2 12  1  0
 12 13  1  0
 13 14  1  0
 14 15  1  0
 15 16  1  0
 16 17  1  0
 17 18  1  0
 18 19  2  0
 15 20  1  6
 11  4  1  0
 18 11  1  0
 13 17  2  0
M  END
>  <docking_score>  (2) 
-7.3369999999999997

$$$$

     RDKit          3D

 20 22  0  0  0  0  0  0  0  0999 V2000
  139.4990  113.8950  136.7798 O   0  0  0  0  0  0  0  0  0  0  0  0
  138.8747  114.7811  136.1536 C   0  0  0  0  0  0  0  0  0  0  0  0
  138.9350  114.6814  134.7316 N   0  0  0  0  0  0  0  0  0  0  0  0
  138.2921  115.2802  133.6102 C   0  0  0  0  0  0  0  0  0  0  0  0
  138.6805  114.5660  132.4988 C   0  0  0  0  0  0  0  0  0  0  0  0
  138.2114  114.9169  131.2462 C   0  0  0  0  0  0  0  0  0  0  0  0
  138.7190  113.9942  129.8469 Cl  0  0  0  0  0  0  0  0  0  0  0  0
  137.3536  115.9927  131.1576 C   0  0  0  0  0  0  0  0  0  0  0  0
  136.9674  116.7044  132.2711 C   0  0  0  0  0  0  0  0  0  0  0  0
  136.1272  117.7641  132.2149 F   0  0  0  0  0  0  0  0  0  0  0  0
  137.4352  116.3570  133.5335 C   0  0  0  0  0  0  0  0  0  0  0  0
  138.2294  115.7116  137.0128 N   0  0  0  0  0  0  0  0  0  0  0  0
  137.5434  116.9514  136.8771 C   0  0  0  0  0  0  0  0  0  0  0  0
  137.3947  117.7056  138.1525 C   0  0  0  0  0  0  0  0  0  0  0  0
  136.1653  118.5957  137.8652 C   0  0  1  0  0  0  0  0  0  0  0  0
  136.4256  118.8752  136.4076 C   0  0  0  0  0  0  0  0  0  0  0  0
  136.9798  117.6174  135.8976 C   0  0  0  0  0  0  0  0  0  0  0  0
  136.8315  117.3087  134.4574 C   0  0  0  0  0  0  0  0  0  0  0  0
  135.9851  118.0555  133.9480 O   0  0  0  0  0  0  0  0  0  0  0  0
  135.0752  117.7141  137.9035 F   0  0  0  0  0  0  0  0  0  0  0  0
  1  2  2  0
  2  3  1  0
  3  4  1  0
  4  5  2  0
  5  6  1  0
  6  7  1  0
  6  8  2  0
  8  9  1  0
  9 10  1  0
  9 11  2  0
  2 12  1  0
 12 13  1  0
 13 14  1  0
 14 15  1  0
 15 16  1  0
 16 17  1  0
 17 18  1  0
 18 19  2  0
 15 20  1  6
 11  4  1  0
 18 11  1  0
 13 17  2  0
M  END
>  <docking_score>  (3) 
-7.266

$$$$
