
     RDKit          3D

 19 21  0  0  0  0  0  0  0  0999 V2000
  121.9398  127.9314  139.9724 O   0  0  0  0  0  0  0  0  0  0  0  0
  121.6092  126.8240  140.4832 C   0  0  0  0  0  0  0  0  0  0  0  0
  121.5321  126.4709  141.7903 N   0  0  0  0  0  0  0  0  0  0  0  0
  122.1400  125.5633  142.6840 C   0  0  0  0  0  0  0  0  0  0  0  0
  123.0075  126.0485  143.6987 C   0  0  0  0  0  0  0  0  0  0  0  0
  123.6754  125.3138  144.5914 C   0  0  0  0  0  0  0  0  0  0  0  0
  124.7358  126.0045  145.8233 Cl  0  0  0  0  0  0  0  0  0  0  0  0
  123.5522  123.9433  144.5770 C   0  0  0  0  0  0  0  0  0  0  0  0
  122.7287  123.3978  143.6240 C   0  0  0  0  0  0  0  0  0  0  0  0
  122.6409  121.6286  143.6023 Cl  0  0  0  0  0  0  0  0  0  0  0  0
  122.0204  124.1861  142.6813 C   0  0  0  0  0  0  0  0  0  0  0  0
  121.2736  125.8321  139.4655 N   0  0  0  0  0  0  0  0  0  0  0  0
  120.3745  124.8093  139.7233 C   0  0  0  0  0  0  0  0  0  0  0  0
  119.5231  124.9715  140.9659 C   0  0  0  0  0  0  0  0  0  0  0  0
  119.7224  123.5800  141.5013 C   0  0  1  0  0  0  0  0  0  0  0  0
  119.4417  122.7629  140.2190 C   0  0  0  0  0  0  0  0  0  0  0  0
  120.0376  123.6656  139.1850 C   0  0  0  0  0  0  0  0  0  0  0  0
  121.1626  123.3949  141.7993 C   0  0  0  0  0  0  0  0  0  0  0  0
  121.7602  122.4155  141.2225 O   0  0  0  0  0  0  0  0  0  0  0  0
  1  2  2  0
  2  3  1  0
  3  4  1  0
  4  5  2  0
  5  6  1  0
  6  7  1  0
  6  8  2  0
  8  9  1  0
  9 10  1  0
  9 11  2  0
  2 12  1  0
 12 13  1  0
 13 14  1  0
 14 15  1  0
 15 16  1  6
 16 17  1  0
 15 18  1  0
 18 19  2  0
 11  4  1  0
 18 11  1  0
 13 17  2  0
M  END
>  <docking_score>  (1) 
-7.1779999999999999

$$$$

     RDKit          3D

 19 21  0  0  0  0  0  0  0  0999 V2000
  121.3200  121.1789  143.0487 O   0  0  0  0  0  0  0  0  0  0  0  0
  121.5964  122.4119  143.0469 C   0  0  0  0  0  0  0  0  0  0  0  0
  120.7960  123.4701  142.7669 N   0  0  0  0  0  0  0  0  0  0  0  0
  120.7038  124.5119  141.8192 C   0  0  0  0  0  0  0  0  0  0  0  0
  119.6610  124.4963  140.8548 C   0  0  0  0  0  0  0  0  0  0  0  0
  119.4649  125.3896  139.8820 C   0  0  0  0  0  0  0  0  0  0  0  0
  118.1358  125.2916  138.7231 Cl  0  0  0  0  0  0  0  0  0  0  0  0
  120.3265  126.4543  139.7487 C   0  0  0  0  0  0  0  0  0  0  0  0
  121.3615  126.5395  140.6461 C   0  0  0  0  0  0  0  0  0  0  0  0
  122.4803  127.8920  140.4064 Cl  0  0  0  0  0  0  0  0  0  0  0  0
  121.5607  125.5876  141.6786 C   0  0  0  0  0  0  0  0  0  0  0  0
  122.9893  122.6593  143.4086 N   0  0  0  0  0  0  0  0  0  0  0  0
  123.3767  123.8398  144.0228 C   0  0  0  0  0  0  0  0  0  0  0  0
  122.2593  124.6886  144.5940 C   0  0  0  0  0  0  0  0  0  0  0  0
  122.7249  126.0016  144.0268 C   0  0  1  0  0  0  0  0  0  0  0  0
  124.2175  125.9454  144.4267 C   0  0  0  0  0  0  0  0  0  0  0  0
  124.4915  124.4849  144.2516 C   0  0  0  0  0  0  0  0  0  0  0  0
  122.6923  125.9104  142.5476 C   0  0  0  0  0  0  0  0  0  0  0  0
  123.7883  126.1443  141.9207 O   0  0  0  0  0  0  0  0  0  0  0  0
  1  2  2  0
  2  3  1  0
  3  4  1  0
  4  5  2  0
  5  6  1  0
  6  7  1  0
  6  8  2  0
  8  9  1  0
  9 10  1  0
  9 11  2  0
  2 12  1  0
 12 13  1  0
 13 14  1  0
 14 15  1  0
 15 16  1  6
 16 17  1  0
 15 18  1  0
 18 19  2  0
 11  4  1  0
 18 11  1  0
 13 17  2  0
M  END
>  <docking_score>  (2) 
-7.0759999999999996

$$$$
