
     RDKit          3D

 11 11  0  0  0  0  0  0  0  0999 V2000
  133.5379  120.4684  140.4502 O   0  0  0  0  0  0  0  0  0  0  0  0
  134.7612  120.7184  140.3046 C   0  0  0  0  0  0  0  0  0  0  0  0
  135.5968  119.6154  139.9092 N   0  0  0  0  0  0  0  0  0  0  0  0
  135.0526  118.6725  138.9668 C   0  0  0  0  0  0  0  0  0  0  0  0
  135.7559  117.9893  138.0374 C   0  0  0  0  0  0  0  0  0  0  0  0
  137.1842  118.0414  137.7751 C   0  0  0  0  0  0  0  0  0  0  0  0
  137.6479  117.1556  136.9371 C   0  0  0  0  0  0  0  0  0  0  0  0
  136.7963  116.2673  136.3787 F   0  0  0  0  0  0  0  0  0  0  0  0
  136.9193  119.5183  140.4782 C   0  0  0  0  0  0  0  0  0  0  0  0
  138.0128  119.6026  139.4847 C   0  0  0  0  0  0  0  0  0  0  0  0
  138.0952  118.9632  138.3480 N   0  0  0  0  0  0  0  0  0  0  0  0
  1  2  2  0
  2  3  1  0
  3  4  1  0
  4  5  2  0
  5  6  1  0
  6  7  2  3
  7  8  1  0
  3  9  1  0
  9 10  1  0
 10 11  2  0
 11  6  1  0
M  END
>  <docking_score>  (1) 
-4.5659999999999998

$$$$

     RDKit          3D

 11 11  0  0  0  0  0  0  0  0999 V2000
  126.7536  124.5158  144.2926 O   0  0  0  0  0  0  0  0  0  0  0  0
  125.6089  124.1725  143.9027 C   0  0  0  0  0  0  0  0  0  0  0  0
  124.6878  125.2379  143.6066 N   0  0  0  0  0  0  0  0  0  0  0  0
  124.9067  125.9905  142.3987 C   0  0  0  0  0  0  0  0  0  0  0  0
  123.9458  126.5504  141.6317 C   0  0  0  0  0  0  0  0  0  0  0  0
  122.5073  126.5272  141.8361 C   0  0  0  0  0  0  0  0  0  0  0  0
  121.8017  127.2897  141.0469 C   0  0  0  0  0  0  0  0  0  0  0  0
  122.4328  128.0346  140.1127 F   0  0  0  0  0  0  0  0  0  0  0  0
  123.6093  125.4893  144.5317 C   0  0  0  0  0  0  0  0  0  0  0  0
  122.2602  125.3013  143.9533 C   0  0  0  0  0  0  0  0  0  0  0  0
  121.8243  125.7545  142.8078 N   0  0  0  0  0  0  0  0  0  0  0  0
  1  2  2  0
  2  3  1  0
  3  4  1  0
  4  5  2  0
  5  6  1  0
  6  7  2  3
  7  8  1  0
  3  9  1  0
  9 10  1  0
 10 11  2  0
 11  6  1  0
M  END
>  <docking_score>  (2) 
-4.5339999999999998

$$$$
