
     RDKit          3D

 12 12  0  0  0  0  0  0  0  0999 V2000
  135.6153  122.8591  140.4265 O   0  0  0  0  0  0  0  0  0  0  0  0
  136.6029  122.1957  140.8274 C   0  0  0  0  0  0  0  0  0  0  0  0
  136.5749  120.7980  140.5907 N   0  0  0  0  0  0  0  0  0  0  0  0
  135.2720  120.2805  140.2589 C   0  0  0  0  0  0  0  0  0  0  0  0
  134.9446  119.2870  139.4475 C   0  0  0  0  0  0  0  0  0  0  0  0
  135.5716  118.3028  138.5675 C   0  0  0  0  0  0  0  0  0  0  0  0
  136.8392  118.1808  138.2052 C   0  0  0  0  0  0  0  0  0  0  0  0
  137.1060  117.0404  137.2834 C   0  0  0  0  0  0  0  0  0  0  0  0
  138.1642  116.2757  137.7318 F   0  0  0  0  0  0  0  0  0  0  0  0
  137.8626  120.1565  140.7288 C   0  0  0  0  0  0  0  0  0  0  0  0
  138.4088  119.6350  139.4779 C   0  0  0  0  0  0  0  0  0  0  0  0
  138.0626  118.8732  138.4702 N   0  0  0  0  0  0  0  0  0  0  0  0
  1  2  2  0
  2  3  1  0
  3  4  1  0
  4  5  2  3
  5  6  1  0
  6  7  2  3
  7  8  1  0
  8  9  1  0
  3 10  1  0
 10 11  1  0
 11 12  2  3
 12  7  1  0
M  END
>  <docking_score>  (1) 
-4.6150000000000002

$$$$

     RDKit          3D

 12 12  0  0  0  0  0  0  0  0999 V2000
  136.2262  118.4290  136.0495 O   0  0  0  0  0  0  0  0  0  0  0  0
  136.3736  117.5978  136.9787 C   0  0  0  0  0  0  0  0  0  0  0  0
  136.5367  118.1207  138.2865 N   0  0  0  0  0  0  0  0  0  0  0  0
  137.8871  118.5096  138.6036 C   0  0  0  0  0  0  0  0  0  0  0  0
  138.3181  119.4995  139.3696 C   0  0  0  0  0  0  0  0  0  0  0  0
  137.7993  120.5865  140.1975 C   0  0  0  0  0  0  0  0  0  0  0  0
  136.5539  121.0086  140.3529 C   0  0  0  0  0  0  0  0  0  0  0  0
  136.4089  122.1571  141.2917 C   0  0  0  0  0  0  0  0  0  0  0  0
  135.9964  123.2942  140.6265 F   0  0  0  0  0  0  0  0  0  0  0  0
  135.3136  118.1632  139.0551 C   0  0  0  0  0  0  0  0  0  0  0  0
  134.8365  119.5131  139.3469 C   0  0  0  0  0  0  0  0  0  0  0  0
  135.2671  120.6457  139.8443 N   0  0  0  0  0  0  0  0  0  0  0  0
  1  2  2  0
  2  3  1  0
  3  4  1  0
  4  5  2  3
  5  6  1  0
  6  7  2  3
  7  8  1  0
  8  9  1  0
  3 10  1  0
 10 11  1  0
 11 12  2  3
 12  7  1  0
M  END
>  <docking_score>  (2) 
-4.5190000000000001

$$$$

     RDKit          3D

 12 12  0  0  0  0  0  0  0  0999 V2000
  137.4580  133.2189  134.3040 O   0  0  0  0  0  0  0  0  0  0  0  0
  138.3621  132.9565  135.1346 C   0  0  0  0  0  0  0  0  0  0  0  0
  139.6637  132.7363  134.6171 N   0  0  0  0  0  0  0  0  0  0  0  0
  140.1552  133.8010  133.7803 C   0  0  0  0  0  0  0  0  0  0  0  0
  141.3922  134.2477  133.6293 C   0  0  0  0  0  0  0  0  0  0  0  0
  142.7460  133.9912  134.1166 C   0  0  0  0  0  0  0  0  0  0  0  0
  143.1579  133.1741  135.0737 C   0  0  0  0  0  0  0  0  0  0  0  0
  144.6323  133.1802  135.2919 C   0  0  0  0  0  0  0  0  0  0  0  0
  145.0921  131.9196  135.6164 F   0  0  0  0  0  0  0  0  0  0  0  0
  140.2508  131.4813  135.0280 C   0  0  0  0  0  0  0  0  0  0  0  0
  141.4032  131.6217  135.9154 C   0  0  0  0  0  0  0  0  0  0  0  0
  142.5469  132.2562  135.9849 N   0  0  0  0  0  0  0  0  0  0  0  0
  1  2  2  0
  2  3  1  0
  3  4  1  0
  4  5  2  3
  5  6  1  0
  6  7  2  3
  7  8  1  0
  8  9  1  0
  3 10  1  0
 10 11  1  0
 11 12  2  3
 12  7  1  0
M  END
>  <docking_score>  (3) 
-4.3949999999999996

$$$$
