
     RDKit          3D

 29 32  0  0  0  0  0  0  0  0999 V2000
  149.5875  129.5143  132.8331 O   0  0  0  0  0  0  0  0  0  0  0  0
  148.7434  130.4040  132.5479 C   0  0  0  0  0  0  0  0  0  0  0  0
  148.0394  130.2334  131.2990 N   0  0  0  0  0  0  0  0  0  0  0  0
  148.3609  129.0632  130.4980 C   0  0  2  0  0  0  0  0  0  0  0  0
  147.3710  128.8330  129.3522 C   0  0  0  0  0  0  0  0  0  0  0  0
  147.4874  127.8538  130.4871 C   0  0  1  0  0  0  0  0  0  0  0  0
  148.2419  126.5847  130.3815 C   0  0  0  0  0  0  0  0  0  0  0  0
  147.8067  125.5058  131.1107 C   0  0  0  0  0  0  0  0  0  0  0  0
  148.4672  124.2861  131.0737 C   0  0  0  0  0  0  0  0  0  0  0  0
  149.5743  124.1453  130.2975 C   0  0  0  0  0  0  0  0  0  0  0  0
  150.0266  125.1774  129.5715 C   0  0  0  0  0  0  0  0  0  0  0  0
  149.3654  126.4235  129.6006 C   0  0  0  0  0  0  0  0  0  0  0  0
  148.5245  131.4887  133.4057 N   0  0  0  0  0  0  0  0  0  0  0  0
  148.4645  131.2859  134.8499 C   0  0  0  0  0  0  0  0  0  0  0  0
  147.1228  131.8527  135.3376 C   0  0  0  0  0  0  0  0  0  0  0  0
  146.2469  132.1354  134.1068 C   0  0  0  0  0  0  0  0  0  0  0  0
  144.9030  132.4600  134.5379 C   0  0  0  0  0  0  0  0  0  0  0  0
  144.1287  131.6371  135.3051 N   0  0  0  0  0  0  0  0  0  0  0  0
  142.9563  132.2944  135.4906 C   0  0  0  0  0  0  0  0  0  0  0  0
  141.8389  131.7766  136.2712 C   0  0  0  0  0  0  0  0  0  0  0  0
  140.5974  131.7572  135.9282 C   0  0  0  0  0  0  0  0  0  0  0  0
  140.0199  132.2150  134.7470 C   0  0  0  0  0  0  0  0  0  0  0  0
  139.2362  133.0101  134.2439 C   0  0  0  0  0  0  0  0  0  0  0  0
  138.9006  133.1707  132.8404 C   0  0  0  0  0  0  0  0  0  0  0  0
  138.6300  133.2796  131.7598 N   0  0  0  0  0  0  0  0  0  0  0  0
  143.0340  133.4591  134.8568 N   0  0  0  0  0  0  0  0  0  0  0  0
  144.2049  133.5156  134.3063 O   0  0  0  0  0  0  0  0  0  0  0  0
  146.8370  133.2131  133.2446 C   0  0  0  0  0  0  0  0  0  0  0  0
  148.2993  132.8336  132.8967 C   0  0  0  0  0  0  0  0  0  0  0  0
  1  2  2  0
  2  3  1  0
  4  3  1  1
  4  5  1  0
  5  6  1  0
  6  7  1  6
  7  8  2  0
  8  9  1  0
  9 10  2  0
 10 11  1  0
 11 12  2  0
  2 13  1  0
 13 14  1  0
 14 15  1  0
 15 16  1  0
 16 17  1  0
 17 18  2  0
 18 19  1  0
 19 20  1  0
 20 21  2  3
 21 22  1  0
 22 23  2  3
 23 24  1  0
 24 25  3  0
 19 26  2  0
 26 27  1  0
 16 28  1  0
 28 29  1  0
  6  4  1  0
 12  7  1  0
 29 13  1  0
 27 17  1  0
M  END
>  <docking_score>  (1) 
-8.141

$$$$

     RDKit          3D

 29 32  0  0  0  0  0  0  0  0999 V2000
  126.1746  124.1428  143.3154 O   0  0  0  0  0  0  0  0  0  0  0  0
  126.3332  125.3493  142.9920 C   0  0  0  0  0  0  0  0  0  0  0  0
  125.1814  126.0109  142.4261 N   0  0  0  0  0  0  0  0  0  0  0  0
  123.9587  125.2362  142.2880 C   0  0  2  0  0  0  0  0  0  0  0  0
  122.7267  126.1062  142.0223 C   0  0  0  0  0  0  0  0  0  0  0  0
  122.8599  125.3156  143.2941 C   0  0  1  0  0  0  0  0  0  0  0  0
  122.1711  124.0242  143.5153 C   0  0  0  0  0  0  0  0  0  0  0  0
  122.9339  122.8858  143.6023 C   0  0  0  0  0  0  0  0  0  0  0  0
  122.3611  121.6371  143.7970 C   0  0  0  0  0  0  0  0  0  0  0  0
  121.0105  121.5276  143.9068 C   0  0  0  0  0  0  0  0  0  0  0  0
  120.2352  122.6182  143.8276 C   0  0  0  0  0  0  0  0  0  0  0  0
  120.8043  123.8939  143.6288 C   0  0  0  0  0  0  0  0  0  0  0  0
  127.5665  125.9865  143.1743 N   0  0  0  0  0  0  0  0  0  0  0  0
  127.9760  127.0682  142.2840 C   0  0  0  0  0  0  0  0  0  0  0  0
  129.3389  126.6825  141.6898 C   0  0  0  0  0  0  0  0  0  0  0  0
  129.6025  125.2041  142.0166 C   0  0  0  0  0  0  0  0  0  0  0  0
  130.7682  124.7512  141.2866 C   0  0  0  0  0  0  0  0  0  0  0  0
  131.7868  125.5709  140.8920 N   0  0  0  0  0  0  0  0  0  0  0  0
  132.6766  124.7757  140.2463 C   0  0  0  0  0  0  0  0  0  0  0  0
  133.9305  125.2457  139.6694 C   0  0  0  0  0  0  0  0  0  0  0  0
  134.9772  124.5403  139.4118 C   0  0  0  0  0  0  0  0  0  0  0  0
  135.1713  123.1765  139.6132 C   0  0  0  0  0  0  0  0  0  0  0  0
  135.6613  122.1461  139.1686 C   0  0  0  0  0  0  0  0  0  0  0  0
  135.6340  120.8168  139.7522 C   0  0  0  0  0  0  0  0  0  0  0  0
  135.5952  119.7897  140.1953 N   0  0  0  0  0  0  0  0  0  0  0  0
  132.2020  123.5352  140.2575 N   0  0  0  0  0  0  0  0  0  0  0  0
  131.0692  123.5666  140.8845 O   0  0  0  0  0  0  0  0  0  0  0  0
  129.7424  124.9815  143.4945 C   0  0  0  0  0  0  0  0  0  0  0  0
  128.4986  125.5674  144.2107 C   0  0  0  0  0  0  0  0  0  0  0  0
  1  2  2  0
  2  3  1  0
  4  3  1  1
  4  5  1  0
  5  6  1  0
  6  7  1  6
  7  8  2  0
  8  9  1  0
  9 10  2  0
 10 11  1  0
 11 12  2  0
  2 13  1  0
 13 14  1  0
 14 15  1  0
 15 16  1  0
 16 17  1  0
 17 18  2  0
 18 19  1  0
 19 20  1  0
 20 21  2  3
 21 22  1  0
 22 23  2  3
 23 24  1  0
 24 25  3  0
 19 26  2  0
 26 27  1  0
 16 28  1  0
 28 29  1  0
  6  4  1  0
 12  7  1  0
 29 13  1  0
 27 17  1  0
M  END
>  <docking_score>  (2) 
-8.1010000000000009

$$$$

     RDKit          3D

 29 32  0  0  0  0  0  0  0  0999 V2000
  132.4614  122.6518  140.1479 O   0  0  0  0  0  0  0  0  0  0  0  0
  133.3918  123.4938  140.2509 C   0  0  0  0  0  0  0  0  0  0  0  0
  132.9869  124.8735  140.3821 N   0  0  0  0  0  0  0  0  0  0  0  0
  131.5615  125.1603  140.3887 C   0  0  2  0  0  0  0  0  0  0  0  0
  131.2001  126.4126  139.5844 C   0  0  0  0  0  0  0  0  0  0  0  0
  131.0047  126.3628  141.0742 C   0  0  1  0  0  0  0  0  0  0  0  0
  129.6878  126.1221  141.7060 C   0  0  0  0  0  0  0  0  0  0  0  0
  129.3727  124.8411  142.0867 C   0  0  0  0  0  0  0  0  0  0  0  0
  128.1538  124.5338  142.6743 C   0  0  0  0  0  0  0  0  0  0  0  0
  127.2417  125.5199  142.8837 C   0  0  0  0  0  0  0  0  0  0  0  0
  127.5164  126.7820  142.5254 C   0  0  0  0  0  0  0  0  0  0  0  0
  128.7514  127.1083  141.9260 C   0  0  0  0  0  0  0  0  0  0  0  0
  134.7323  123.0904  140.2295 N   0  0  0  0  0  0  0  0  0  0  0  0
  135.5207  123.2171  139.0076 C   0  0  0  0  0  0  0  0  0  0  0  0
  136.0870  121.8273  138.6806 C   0  0  0  0  0  0  0  0  0  0  0  0
  135.3759  120.7984  139.5738 C   0  0  0  0  0  0  0  0  0  0  0  0
  135.7246  119.4620  139.1386 C   0  0  0  0  0  0  0  0  0  0  0  0
  136.9908  119.0754  138.8030 N   0  0  0  0  0  0  0  0  0  0  0  0
  136.9016  117.7668  138.4558 C   0  0  0  0  0  0  0  0  0  0  0  0
  138.0342  116.9484  138.0392 C   0  0  0  0  0  0  0  0  0  0  0  0
  138.4917  116.8104  136.8430 C   0  0  0  0  0  0  0  0  0  0  0  0
  138.0306  117.3981  135.6681 C   0  0  0  0  0  0  0  0  0  0  0  0
  137.6204  117.2035  134.5308 C   0  0  0  0  0  0  0  0  0  0  0  0
  137.2055  118.1880  133.5476 C   0  0  0  0  0  0  0  0  0  0  0  0
  136.9040  118.9501  132.7852 N   0  0  0  0  0  0  0  0  0  0  0  0
  135.6325  117.3950  138.5797 N   0  0  0  0  0  0  0  0  0  0  0  0
  134.9703  118.4308  138.9870 O   0  0  0  0  0  0  0  0  0  0  0  0
  135.6889  121.0171  141.0255 C   0  0  0  0  0  0  0  0  0  0  0  0
  135.3693  122.4892  141.3919 C   0  0  0  0  0  0  0  0  0  0  0  0
  1  2  2  0
  2  3  1  0
  4  3  1  1
  4  5  1  0
  5  6  1  0
  6  7  1  6
  7  8  2  0
  8  9  1  0
  9 10  2  0
 10 11  1  0
 11 12  2  0
  2 13  1  0
 13 14  1  0
 14 15  1  0
 15 16  1  0
 16 17  1  0
 17 18  2  0
 18 19  1  0
 19 20  1  0
 20 21  2  3
 21 22  1  0
 22 23  2  3
 23 24  1  0
 24 25  3  0
 19 26  2  0
 26 27  1  0
 16 28  1  0
 28 29  1  0
  6  4  1  0
 12  7  1  0
 29 13  1  0
 27 17  1  0
M  END
>  <docking_score>  (3) 
-7.5620000000000003

$$$$
