
     RDKit          3D

 11 11  0  0  0  0  0  0  0  0999 V2000
  132.8216  123.7973  138.9580 O   0  0  0  0  0  0  0  0  0  0  0  0
  133.5527  123.9634  139.9587 C   0  0  0  0  0  0  0  0  0  0  0  0
  134.4275  122.9248  140.3602 N   0  0  0  0  0  0  0  0  0  0  0  0
  133.9525  121.5856  140.0824 C   0  0  0  0  0  0  0  0  0  0  0  0
  134.7375  120.4980  140.0624 C   0  0  0  0  0  0  0  0  0  0  0  0
  136.1868  120.4354  140.3079 C   0  0  0  0  0  0  0  0  0  0  0  0
  136.7170  119.2429  140.5022 C   0  0  0  0  0  0  0  0  0  0  0  0
  138.0408  119.1175  140.7325 F   0  0  0  0  0  0  0  0  0  0  0  0
  135.6262  123.3778  140.9711 C   0  0  0  0  0  0  0  0  0  0  0  0
  136.8663  122.7275  140.6373 C   0  0  0  0  0  0  0  0  0  0  0  0
  137.1036  121.5041  140.3610 N   0  0  0  0  0  0  0  0  0  0  0  0
  1  2  2  0
  2  3  1  0
  3  4  1  0
  4  5  2  0
  5  6  1  0
  6  7  2  3
  7  8  1  0
  3  9  1  0
  9 10  1  0
 10 11  2  0
 11  6  1  0
M  END
>  <docking_score>  (1) 
-4.3109999999999999

$$$$

     RDKit          3D

 11 11  0  0  0  0  0  0  0  0999 V2000
  139.7318  133.5709  131.9080 O   0  0  0  0  0  0  0  0  0  0  0  0
  138.6793  133.4096  132.5634 C   0  0  0  0  0  0  0  0  0  0  0  0
  138.7595  133.1318  133.9496 N   0  0  0  0  0  0  0  0  0  0  0  0
  137.4916  133.1445  134.6486 C   0  0  0  0  0  0  0  0  0  0  0  0
  137.2912  132.5899  135.8535 C   0  0  0  0  0  0  0  0  0  0  0  0
  138.2744  131.8806  136.6871 C   0  0  0  0  0  0  0  0  0  0  0  0
  137.9464  131.6467  137.9435 C   0  0  0  0  0  0  0  0  0  0  0  0
  138.8042  131.0002  138.7604 F   0  0  0  0  0  0  0  0  0  0  0  0
  140.0770  132.8886  134.4187 C   0  0  0  0  0  0  0  0  0  0  0  0
  140.2936  131.8271  135.3665 C   0  0  0  0  0  0  0  0  0  0  0  0
  139.5464  131.4049  136.3115 N   0  0  0  0  0  0  0  0  0  0  0  0
  1  2  2  0
  2  3  1  0
  3  4  1  0
  4  5  2  0
  5  6  1  0
  6  7  2  3
  7  8  1  0
  3  9  1  0
  9 10  1  0
 10 11  2  0
 11  6  1  0
M  END
>  <docking_score>  (2) 
-4.1289999999999996

$$$$

     RDKit          3D

 11 11  0  0  0  0  0  0  0  0999 V2000
  129.6284  125.5664  165.6918 O   0  0  0  0  0  0  0  0  0  0  0  0
  130.2005  124.4726  165.8915 C   0  0  0  0  0  0  0  0  0  0  0  0
  131.1655  124.0134  164.9626 N   0  0  0  0  0  0  0  0  0  0  0  0
  130.7332  122.9122  164.1279 C   0  0  0  0  0  0  0  0  0  0  0  0
  131.3353  122.5537  162.9840 C   0  0  0  0  0  0  0  0  0  0  0  0
  132.5132  123.1758  162.3593 C   0  0  0  0  0  0  0  0  0  0  0  0
  133.1026  122.5116  161.3834 C   0  0  0  0  0  0  0  0  0  0  0  0
  134.1877  123.0278  160.7691 F   0  0  0  0  0  0  0  0  0  0  0  0
  132.3988  124.7148  165.0107 C   0  0  0  0  0  0  0  0  0  0  0  0
  133.0558  125.0531  163.7754 C   0  0  0  0  0  0  0  0  0  0  0  0
  133.1059  124.4157  162.6705 N   0  0  0  0  0  0  0  0  0  0  0  0
  1  2  2  0
  2  3  1  0
  3  4  1  0
  4  5  2  0
  5  6  1  0
  6  7  2  3
  7  8  1  0
  3  9  1  0
  9 10  1  0
 10 11  2  0
 11  6  1  0
M  END
>  <docking_score>  (3) 
-2.4359999999999999

$$$$
