
     RDKit          3D

 11 11  0  0  0  0  0  0  0  0999 V2000
  124.4617  123.4550  144.9776 O   0  0  0  0  0  0  0  0  0  0  0  0
  124.6846  124.1678  143.9622 C   0  0  0  0  0  0  0  0  0  0  0  0
  123.6783  125.0110  143.4078 N   0  0  0  0  0  0  0  0  0  0  0  0
  124.1285  126.0216  142.5147 C   0  0  0  0  0  0  0  0  0  0  0  0
  123.4309  126.6527  141.5850 C   0  0  0  0  0  0  0  0  0  0  0  0
  122.0225  126.4621  141.2505 C   0  0  0  0  0  0  0  0  0  0  0  0
  121.4782  127.3425  140.4016 C   0  0  0  0  0  0  0  0  0  0  0  0
  122.2631  128.3323  139.9216 F   0  0  0  0  0  0  0  0  0  0  0  0
  122.3541  124.6958  143.8497 C   0  0  0  0  0  0  0  0  0  0  0  0
  121.3373  124.7385  142.8033 C   0  0  0  0  0  0  0  0  0  0  0  0
  121.1595  125.4354  141.7318 N   0  0  0  0  0  0  0  0  0  0  0  0
  1  2  2  0
  2  3  1  0
  3  4  1  0
  4  5  2  0
  5  6  1  0
  6  7  2  3
  7  8  1  0
  3  9  1  0
  9 10  1  0
 10 11  2  0
 11  6  1  0
M  END
>  <docking_score>  (1) 
-4.2409999999999997

$$$$

     RDKit          3D

 11 11  0  0  0  0  0  0  0  0999 V2000
  136.2544  117.9751  162.2663 O   0  0  0  0  0  0  0  0  0  0  0  0
  137.1548  118.4974  161.5555 C   0  0  0  0  0  0  0  0  0  0  0  0
  138.3204  117.7705  161.1759 N   0  0  0  0  0  0  0  0  0  0  0  0
  138.3027  116.3737  161.4408 C   0  0  0  0  0  0  0  0  0  0  0  0
  139.0269  115.4290  160.8643 C   0  0  0  0  0  0  0  0  0  0  0  0
  140.0243  115.5947  159.8109 C   0  0  0  0  0  0  0  0  0  0  0  0
  140.7690  114.5238  159.5097 C   0  0  0  0  0  0  0  0  0  0  0  0
  140.5459  113.3806  160.1948 F   0  0  0  0  0  0  0  0  0  0  0  0
  139.3369  118.5819  160.5788 C   0  0  0  0  0  0  0  0  0  0  0  0
  139.9919  117.9817  159.4205 C   0  0  0  0  0  0  0  0  0  0  0  0
  140.2928  116.7784  159.0644 N   0  0  0  0  0  0  0  0  0  0  0  0
  1  2  2  0
  2  3  1  0
  3  4  1  0
  4  5  2  0
  5  6  1  0
  6  7  2  3
  7  8  1  0
  3  9  1  0
  9 10  1  0
 10 11  2  0
 11  6  1  0
M  END
>  <docking_score>  (2) 
-2.8319999999999999

$$$$
