
     RDKit          3D

 29 33  0  0  0  0  0  0  0  0999 V2000
  140.7687  135.5908  137.3137 O   0  0  0  0  0  0  0  0  0  0  0  0
  141.2095  134.6385  137.9729 C   0  0  0  0  0  0  0  0  0  0  0  0
  141.0672  133.3202  137.4667 N   0  0  0  0  0  0  0  0  0  0  0  0
  140.4425  132.9801  136.2293 C   0  0  2  0  0  0  0  0  0  0  0  0
  140.8911  131.5633  135.7404 C   0  0  0  0  0  0  0  0  0  0  0  0
  141.1367  132.7736  134.9604 C   0  0  2  0  0  0  0  0  0  0  0  0
  142.4616  133.3005  134.6350 C   0  0  0  0  0  0  0  0  0  0  0  0
  143.5581  132.7481  135.3002 C   0  0  0  0  0  0  0  0  0  0  0  0
  144.8461  133.1559  135.0814 C   0  0  0  0  0  0  0  0  0  0  0  0
  145.1010  134.1557  134.1680 C   0  0  0  0  0  0  0  0  0  0  0  0
  144.0269  134.7163  133.4982 C   0  0  0  0  0  0  0  0  0  0  0  0
  142.7266  134.2999  133.7235 C   0  0  0  0  0  0  0  0  0  0  0  0
  141.8479  134.8671  139.2158 N   0  0  0  0  0  0  0  0  0  0  0  0
  142.0217  136.1903  139.7818 C   0  0  2  0  0  0  0  0  0  0  0  0
  143.3688  136.7025  139.3811 C   0  0  0  0  0  0  0  0  0  0  0  0
  144.3097  136.0953  140.3999 C   0  0  1  0  0  0  0  0  0  0  0  0
  145.3571  137.0941  140.6840 C   0  0  0  0  0  0  0  0  0  0  0  0
  146.2773  136.9937  141.6567 N   0  0  0  0  0  0  0  0  0  0  0  0
  147.0566  138.0863  141.6109 C   0  0  0  0  0  0  0  0  0  0  0  0
  148.1828  138.3237  142.5384 C   0  0  0  0  0  0  0  0  0  0  0  0
  149.0217  139.4014  142.3780 C   0  0  0  0  0  0  0  0  0  0  0  0
  150.0733  139.6343  143.2334 C   0  0  0  0  0  0  0  0  0  0  0  0
  150.2740  138.7385  144.2855 C   0  0  0  0  0  0  0  0  0  0  0  0
  149.4623  137.6440  144.4892 C   0  0  0  0  0  0  0  0  0  0  0  0
  148.4267  137.4729  143.5916 C   0  0  0  0  0  0  0  0  0  0  0  0
  146.6030  138.8337  140.6152 N   0  0  0  0  0  0  0  0  0  0  0  0
  145.5880  138.2242  140.0740 O   0  0  0  0  0  0  0  0  0  0  0  0
  143.4902  135.8528  141.6460 C   0  0  0  0  0  0  0  0  0  0  0  0
  142.0505  136.1033  141.2707 C   0  0  0  0  0  0  0  0  0  0  0  0
  1  2  2  0
  2  3  1  0
  4  3  1  1
  4  5  1  0
  5  6  1  0
  6  7  1  1
  7  8  2  0
  8  9  1  0
  9 10  2  0
 10 11  1  0
 11 12  2  0
  2 13  1  0
 14 13  1  6
 14 15  1  0
 15 16  1  0
 16 17  1  1
 17 18  2  0
 18 19  1  0
 19 20  1  0
 20 21  2  0
 21 22  1  0
 22 23  2  0
 23 24  1  0
 24 25  2  0
 19 26  2  0
 26 27  1  0
 16 28  1  0
 28 29  1  0
  6  4  1  0
 12  7  1  0
 29 14  1  0
 27 17  1  0
 25 20  1  0
M  END
>  <docking_score>  (1) 
-9.4649999999999999

$$$$

     RDKit          3D

 29 33  0  0  0  0  0  0  0  0999 V2000
  135.8643  124.9679  140.0579 O   0  0  0  0  0  0  0  0  0  0  0  0
  135.6141  124.2326  139.0923 C   0  0  0  0  0  0  0  0  0  0  0  0
  135.3746  122.8516  139.3165 N   0  0  0  0  0  0  0  0  0  0  0  0
  135.3971  122.2122  140.5923 C   0  0  2  0  0  0  0  0  0  0  0  0
  136.8646  121.9829  141.0836 C   0  0  0  0  0  0  0  0  0  0  0  0
  135.9332  120.8799  140.8610 C   0  0  2  0  0  0  0  0  0  0  0  0
  136.1096  119.8301  139.8582 C   0  0  0  0  0  0  0  0  0  0  0  0
  137.4129  119.5383  139.4503 C   0  0  0  0  0  0  0  0  0  0  0  0
  137.7058  118.5778  138.5205 C   0  0  0  0  0  0  0  0  0  0  0  0
  136.6872  117.8502  137.9445 C   0  0  0  0  0  0  0  0  0  0  0  0
  135.3879  118.1248  138.3357 C   0  0  0  0  0  0  0  0  0  0  0  0
  135.0975  119.0973  139.2764 C   0  0  0  0  0  0  0  0  0  0  0  0
  135.5676  124.7676  137.7822 N   0  0  0  0  0  0  0  0  0  0  0  0
  135.8034  126.1684  137.4934 C   0  0  2  0  0  0  0  0  0  0  0  0
  134.6395  126.9583  138.0024 C   0  0  0  0  0  0  0  0  0  0  0  0
  133.6145  126.8569  136.8929 C   0  0  1  0  0  0  0  0  0  0  0  0
  132.9082  128.1499  136.8247 C   0  0  0  0  0  0  0  0  0  0  0  0
  133.4886  129.3356  136.5792 N   0  0  0  0  0  0  0  0  0  0  0  0
  132.5346  130.2807  136.5954 C   0  0  0  0  0  0  0  0  0  0  0  0
  132.8047  131.7155  136.3649 C   0  0  0  0  0  0  0  0  0  0  0  0
  133.9974  132.2850  136.7444 C   0  0  0  0  0  0  0  0  0  0  0  0
  134.2619  133.6186  136.5361 C   0  0  0  0  0  0  0  0  0  0  0  0
  133.2775  134.3944  135.9208 C   0  0  0  0  0  0  0  0  0  0  0  0
  132.0666  133.8719  135.5223 C   0  0  0  0  0  0  0  0  0  0  0  0
  131.8702  132.5262  135.7632 C   0  0  0  0  0  0  0  0  0  0  0  0
  131.3914  129.6605  136.8488 N   0  0  0  0  0  0  0  0  0  0  0  0
  131.6351  128.3888  136.9824 O   0  0  0  0  0  0  0  0  0  0  0  0
  134.3898  126.6357  135.6149 C   0  0  0  0  0  0  0  0  0  0  0  0
  135.8218  126.3840  136.0175 C   0  0  0  0  0  0  0  0  0  0  0  0
  1  2  2  0
  2  3  1  0
  4  3  1  6
  4  5  1  0
  5  6  1  0
  6  7  1  6
  7  8  2  0
  8  9  1  0
  9 10  2  0
 10 11  1  0
 11 12  2  0
  2 13  1  0
 14 13  1  6
 14 15  1  0
 15 16  1  0
 16 17  1  6
 17 18  2  0
 18 19  1  0
 19 20  1  0
 20 21  2  0
 21 22  1  0
 22 23  2  0
 23 24  1  0
 24 25  2  0
 19 26  2  0
 26 27  1  0
 16 28  1  0
 28 29  1  0
  6  4  1  0
 12  7  1  0
 29 14  1  0
 27 17  1  0
 25 20  1  0
M  END
>  <docking_score>  (2) 
-9.1059999999999999

$$$$

     RDKit          3D

 29 33  0  0  0  0  0  0  0  0999 V2000
  129.8016  129.7370  136.6790 O   0  0  0  0  0  0  0  0  0  0  0  0
  130.6394  129.8204  137.5883 C   0  0  0  0  0  0  0  0  0  0  0  0
  131.6649  130.7976  137.4985 N   0  0  0  0  0  0  0  0  0  0  0  0
  131.8248  131.7215  136.4225 C   0  0  2  0  0  0  0  0  0  0  0  0
  132.8925  132.8117  136.7678 C   0  0  0  0  0  0  0  0  0  0  0  0
  131.5008  133.1452  136.4754 C   0  0  2  0  0  0  0  0  0  0  0  0
  130.5737  133.7586  137.4257 C   0  0  0  0  0  0  0  0  0  0  0  0
  129.2130  133.4874  137.2679 C   0  0  0  0  0  0  0  0  0  0  0  0
  128.2496  134.0012  138.0931 C   0  0  0  0  0  0  0  0  0  0  0  0
  128.6112  134.8267  139.1355 C   0  0  0  0  0  0  0  0  0  0  0  0
  129.9557  135.1078  139.3084 C   0  0  0  0  0  0  0  0  0  0  0  0
  130.9256  134.5854  138.4709 C   0  0  0  0  0  0  0  0  0  0  0  0
  130.5707  128.9498  138.7027 N   0  0  0  0  0  0  0  0  0  0  0  0
  129.5469  127.9338  138.8481 C   0  0  2  0  0  0  0  0  0  0  0  0
  128.9149  128.0892  140.1950 C   0  0  0  0  0  0  0  0  0  0  0  0
  129.8481  127.3444  141.1258 C   0  0  1  0  0  0  0  0  0  0  0  0
  129.0169  126.6907  142.1542 C   0  0  0  0  0  0  0  0  0  0  0  0
  127.7337  126.3288  141.9955 N   0  0  0  0  0  0  0  0  0  0  0  0
  127.3119  125.7671  143.1400 C   0  0  0  0  0  0  0  0  0  0  0  0
  125.9422  125.2475  143.3366 C   0  0  0  0  0  0  0  0  0  0  0  0
  124.8820  125.7455  142.6164 C   0  0  0  0  0  0  0  0  0  0  0  0
  123.6025  125.2714  142.7893 C   0  0  0  0  0  0  0  0  0  0  0  0
  123.3998  124.2568  143.7269 C   0  0  0  0  0  0  0  0  0  0  0  0
  124.4281  123.7244  144.4736 C   0  0  0  0  0  0  0  0  0  0  0  0
  125.6856  124.2487  144.2473 C   0  0  0  0  0  0  0  0  0  0  0  0
  128.3394  125.7940  143.9762 N   0  0  0  0  0  0  0  0  0  0  0  0
  129.3483  126.3492  143.3691 O   0  0  0  0  0  0  0  0  0  0  0  0
  130.5365  126.2924  140.2876 C   0  0  0  0  0  0  0  0  0  0  0  0
  130.1746  126.5806  138.8515 C   0  0  0  0  0  0  0  0  0  0  0  0
  1  2  2  0
  2  3  1  0
  4  3  1  1
  4  5  1  0
  5  6  1  0
  6  7  1  1
  7  8  2  0
  8  9  1  0
  9 10  2  0
 10 11  1  0
 11 12  2  0
  2 13  1  0
 14 13  1  1
 14 15  1  0
 15 16  1  0
 16 17  1  1
 17 18  2  0
 18 19  1  0
 19 20  1  0
 20 21  2  0
 21 22  1  0
 22 23  2  0
 23 24  1  0
 24 25  2  0
 19 26  2  0
 26 27  1  0
 16 28  1  0
 28 29  1  0
  6  4  1  0
 12  7  1  0
 29 14  1  0
 27 17  1  0
 25 20  1  0
M  END
>  <docking_score>  (3) 
-8.343

$$$$
