
     RDKit          3D

 20 22  0  0  0  0  0  0  0  0999 V2000
  120.9079  122.5788  143.7189 O   0  0  0  0  0  0  0  0  0  0  0  0
  121.5657  123.5446  143.2194 C   0  0  0  0  0  0  0  0  0  0  0  0
  120.9340  124.1481  142.0820 N   0  0  0  0  0  0  0  0  0  0  0  0
  121.1346  125.3338  141.3392 C   0  0  0  0  0  0  0  0  0  0  0  0
  119.9714  125.5979  140.6470 C   0  0  0  0  0  0  0  0  0  0  0  0
  119.8471  126.6987  139.8220 C   0  0  0  0  0  0  0  0  0  0  0  0
  118.3470  127.0123  138.9482 Cl  0  0  0  0  0  0  0  0  0  0  0  0
  120.9254  127.5484  139.6971 C   0  0  0  0  0  0  0  0  0  0  0  0
  122.0863  127.2846  140.3880 C   0  0  0  0  0  0  0  0  0  0  0  0
  123.1514  128.1096  140.2746 F   0  0  0  0  0  0  0  0  0  0  0  0
  122.2272  126.1776  141.2246 C   0  0  0  0  0  0  0  0  0  0  0  0
  122.7917  123.8338  143.8842 N   0  0  0  0  0  0  0  0  0  0  0  0
  124.0264  124.4508  143.5471 C   0  0  0  0  0  0  0  0  0  0  0  0
  125.2653  123.9682  144.2613 C   0  0  0  0  0  0  0  0  0  0  0  0
  126.1870  125.1195  144.0626 C   0  0  0  0  0  0  0  0  0  0  0  0
  125.8123  125.6763  142.7438 C   0  0  0  0  0  0  0  0  0  0  0  0
  124.3536  125.4192  142.6975 C   0  0  0  0  0  0  0  0  0  0  0  0
  123.5715  126.2417  141.7659 C   0  0  0  0  0  0  0  0  0  0  0  0
  124.2525  127.2140  141.3659 O   0  0  0  0  0  0  0  0  0  0  0  0
  127.0672  125.5633  144.7682 O   0  0  0  0  0  0  0  0  0  0  0  0
  1  2  2  0
  2  3  1  0
  3  4  1  0
  4  5  2  0
  5  6  1  0
  6  7  1  0
  6  8  2  0
  8  9  1  0
  9 10  1  0
  9 11  2  0
  2 12  1  0
 12 13  1  0
 13 14  1  0
 14 15  1  0
 15 16  1  0
 16 17  1  0
 17 18  1  0
 18 19  2  0
 15 20  2  0
 11  4  1  0
 18 11  1  0
 13 17  2  0
M  END
>  <docking_score>  (1) 
-8.0630000000000006

$$$$

     RDKit          3D

 20 22  0  0  0  0  0  0  0  0999 V2000
  138.6273  133.5285  132.3912 O   0  0  0  0  0  0  0  0  0  0  0  0
  138.7518  133.1739  133.6052 C   0  0  0  0  0  0  0  0  0  0  0  0
  140.0706  132.7243  133.9445 N   0  0  0  0  0  0  0  0  0  0  0  0
  140.7524  132.4460  135.1510 C   0  0  0  0  0  0  0  0  0  0  0  0
  142.1054  132.4747  134.8854 C   0  0  0  0  0  0  0  0  0  0  0  0
  143.0471  132.2398  135.8682 C   0  0  0  0  0  0  0  0  0  0  0  0
  144.7719  132.2828  135.5003 Cl  0  0  0  0  0  0  0  0  0  0  0  0
  142.6064  131.9701  137.1463 C   0  0  0  0  0  0  0  0  0  0  0  0
  141.2560  131.9415  137.4112 C   0  0  0  0  0  0  0  0  0  0  0  0
  140.8101  131.6784  138.6601 F   0  0  0  0  0  0  0  0  0  0  0  0
  140.2932  132.1767  136.4299 C   0  0  0  0  0  0  0  0  0  0  0  0
  137.5641  133.2927  134.3824 N   0  0  0  0  0  0  0  0  0  0  0  0
  137.0393  132.6966  135.5606 C   0  0  0  0  0  0  0  0  0  0  0  0
  135.5391  132.5751  135.6723 C   0  0  0  0  0  0  0  0  0  0  0  0
  135.3649  132.4203  137.1421 C   0  0  0  0  0  0  0  0  0  0  0  0
  136.5735  131.6922  137.5881 C   0  0  0  0  0  0  0  0  0  0  0  0
  137.6069  132.1974  136.6539 C   0  0  0  0  0  0  0  0  0  0  0  0
  139.0041  132.0615  137.0850 C   0  0  0  0  0  0  0  0  0  0  0  0
  139.0584  131.7813  138.3047 O   0  0  0  0  0  0  0  0  0  0  0  0
  134.4707  132.7785  137.8780 O   0  0  0  0  0  0  0  0  0  0  0  0
  1  2  2  0
  2  3  1  0
  3  4  1  0
  4  5  2  0
  5  6  1  0
  6  7  1  0
  6  8  2  0
  8  9  1  0
  9 10  1  0
  9 11  2  0
  2 12  1  0
 12 13  1  0
 13 14  1  0
 14 15  1  0
 15 16  1  0
 16 17  1  0
 17 18  1  0
 18 19  2  0
 15 20  2  0
 11  4  1  0
 18 11  1  0
 13 17  2  0
M  END
>  <docking_score>  (2) 
-7.2750000000000004

$$$$

     RDKit          3D

 20 22  0  0  0  0  0  0  0  0999 V2000
  129.6705  132.6875  144.1018 O   0  0  0  0  0  0  0  0  0  0  0  0
  129.5723  133.7953  143.4870 C   0  0  0  0  0  0  0  0  0  0  0  0
  129.5286  133.6632  142.0596 N   0  0  0  0  0  0  0  0  0  0  0  0
  129.2178  134.5269  140.9848 C   0  0  0  0  0  0  0  0  0  0  0  0
  128.9233  133.7440  139.8882 C   0  0  0  0  0  0  0  0  0  0  0  0
  128.5767  134.2951  138.6700 C   0  0  0  0  0  0  0  0  0  0  0  0
  128.2049  133.2695  137.2837 Cl  0  0  0  0  0  0  0  0  0  0  0  0
  128.5282  135.6686  138.5628 C   0  0  0  0  0  0  0  0  0  0  0  0
  128.8222  136.4498  139.6573 C   0  0  0  0  0  0  0  0  0  0  0  0
  128.7785  137.7981  139.5660 F   0  0  0  0  0  0  0  0  0  0  0  0
  129.1737  135.9084  140.8936 C   0  0  0  0  0  0  0  0  0  0  0  0
  129.5256  134.9407  144.3324 N   0  0  0  0  0  0  0  0  0  0  0  0
  129.8283  136.3237  144.2121 C   0  0  0  0  0  0  0  0  0  0  0  0
  130.2950  137.0461  145.4524 C   0  0  0  0  0  0  0  0  0  0  0  0
  130.0110  138.4620  145.0928 C   0  0  0  0  0  0  0  0  0  0  0  0
  130.2156  138.5250  143.6286 C   0  0  0  0  0  0  0  0  0  0  0  0
  129.7847  137.1758  143.1930 C   0  0  0  0  0  0  0  0  0  0  0  0
  129.4055  137.0317  141.7817 C   0  0  0  0  0  0  0  0  0  0  0  0
  129.2561  138.1578  141.2536 O   0  0  0  0  0  0  0  0  0  0  0  0
  129.6828  139.4053  145.7796 O   0  0  0  0  0  0  0  0  0  0  0  0
  1  2  2  0
  2  3  1  0
  3  4  1  0
  4  5  2  0
  5  6  1  0
  6  7  1  0
  6  8  2  0
  8  9  1  0
  9 10  1  0
  9 11  2  0
  2 12  1  0
 12 13  1  0
 13 14  1  0
 14 15  1  0
 15 16  1  0
 16 17  1  0
 17 18  1  0
 18 19  2  0
 15 20  2  0
 11  4  1  0
 18 11  1  0
 13 17  2  0
M  END
>  <docking_score>  (3) 
-6.242

$$$$
