
     RDKit          3D

 23 25  0  0  0  0  0  0  0  0999 V2000
  137.4847  118.4068  136.5128 C   0  0  0  0  0  0  0  0  0  0  0  0
  135.9845  118.2543  136.6563 C   0  0  0  0  0  0  0  0  0  0  0  0
  135.5417  118.0576  138.0689 C   0  0  0  0  0  0  0  0  0  0  0  0
  135.5116  117.2130  135.7888 N   0  0  0  0  0  0  0  0  0  0  0  0
  136.5482  116.3460  135.2957 C   0  0  0  0  0  0  0  0  0  0  0  0
  135.9865  115.3331  134.3090 C   0  0  2  0  0  0  0  0  0  0  0  0
  136.5934  113.9598  134.6024 C   0  0  0  0  0  0  0  0  0  0  0  0
  136.9617  113.3580  133.2907 C   0  0  1  0  0  0  0  0  0  0  0  0
  138.3792  113.1823  133.2119 N   0  0  0  0  0  0  0  0  0  0  0  0
  139.3210  114.1438  132.7276 C   0  0  0  0  0  0  0  0  0  0  0  0
  140.0994  113.5952  131.8441 O   0  0  0  0  0  0  0  0  0  0  0  0
  139.3281  115.4203  133.1848 N   0  0  0  0  0  0  0  0  0  0  0  0
  138.7141  116.6463  132.9765 C   0  0  0  0  0  0  0  0  0  0  0  0
  139.4165  117.8754  132.8902 C   0  0  0  0  0  0  0  0  0  0  0  0
  138.8581  119.0771  132.6865 C   0  0  0  0  0  0  0  0  0  0  0  0
  139.6888  120.3261  132.6087 C   0  0  0  0  0  0  0  0  0  0  0  0
  137.5176  119.1728  132.5461 C   0  0  0  0  0  0  0  0  0  0  0  0
  136.7503  118.0581  132.6127 C   0  0  0  0  0  0  0  0  0  0  0  0
  135.4160  118.2128  132.4635 F   0  0  0  0  0  0  0  0  0  0  0  0
  137.3492  116.8040  132.8270 C   0  0  0  0  0  0  0  0  0  0  0  0
  138.1377  111.8314  133.7780 C   0  0  0  0  0  0  0  0  0  0  0  0
  136.7874  111.9010  133.0881 C   0  0  0  0  0  0  0  0  0  0  0  0
  136.3587  115.6972  132.8861 C   0  0  0  0  0  0  0  0  0  0  0  0
  1  2  1  0
  2  3  1  0
  2  4  1  0
  4  5  1  0
  6  5  1  1
  6  7  1  0
  8  7  1  1
  8  9  1  0
  9 10  1  0
 10 11  2  0
 10 12  1  0
 12 13  1  0
 13 14  2  0
 14 15  1  0
 15 16  1  0
 15 17  2  0
 17 18  1  0
 18 19  1  0
 18 20  2  0
  9 21  1  0
 21 22  1  0
  6 23  1  0
 22  8  1  0
 20 13  1  0
 23 20  1  0
M  END
>  <docking_score>  (1) 
-7.1769999999999996

$$$$

     RDKit          3D

 23 25  0  0  0  0  0  0  0  0999 V2000
  151.1152  134.4220  139.0900 C   0  0  0  0  0  0  0  0  0  0  0  0
  150.9936  135.8382  139.6135 C   0  0  0  0  0  0  0  0  0  0  0  0
  152.0413  136.1905  140.6176 C   0  0  0  0  0  0  0  0  0  0  0  0
  149.6664  136.0655  140.1109 N   0  0  0  0  0  0  0  0  0  0  0  0
  149.6173  136.4382  141.4995 C   0  0  0  0  0  0  0  0  0  0  0  0
  148.2233  136.2250  142.0710 C   0  0  2  0  0  0  0  0  0  0  0  0
  147.2511  135.9412  140.9245 C   0  0  0  0  0  0  0  0  0  0  0  0
  146.0209  136.7377  141.1905 C   0  0  1  0  0  0  0  0  0  0  0  0
  145.8378  137.7161  140.1630 N   0  0  0  0  0  0  0  0  0  0  0  0
  146.3692  139.0441  140.1609 C   0  0  0  0  0  0  0  0  0  0  0  0
  145.4243  139.8988  139.9076 O   0  0  0  0  0  0  0  0  0  0  0  0
  147.6833  139.2812  140.3959 N   0  0  0  0  0  0  0  0  0  0  0  0
  148.5809  139.4519  141.4392 C   0  0  0  0  0  0  0  0  0  0  0  0
  149.5555  140.4815  141.4805 C   0  0  0  0  0  0  0  0  0  0  0  0
  150.4358  140.6792  142.4721 C   0  0  0  0  0  0  0  0  0  0  0  0
  151.4323  141.8023  142.4254 C   0  0  0  0  0  0  0  0  0  0  0  0
  150.4305  139.8530  143.5413 C   0  0  0  0  0  0  0  0  0  0  0  0
  149.5396  138.8341  143.6029 C   0  0  0  0  0  0  0  0  0  0  0  0
  149.5783  138.0405  144.6962 F   0  0  0  0  0  0  0  0  0  0  0  0
  148.6219  138.6380  142.5556 C   0  0  0  0  0  0  0  0  0  0  0  0
  145.0324  136.6814  139.4670 C   0  0  0  0  0  0  0  0  0  0  0  0
  144.6985  136.1617  140.8535 C   0  0  0  0  0  0  0  0  0  0  0  0
  147.7323  137.4691  142.7828 C   0  0  0  0  0  0  0  0  0  0  0  0
  1  2  1  0
  2  3  1  0
  2  4  1  0
  4  5  1  0
  6  5  1  6
  6  7  1  0
  8  7  1  6
  8  9  1  0
  9 10  1  0
 10 11  2  0
 10 12  1  0
 12 13  1  0
 13 14  2  0
 14 15  1  0
 15 16  1  0
 15 17  2  0
 17 18  1  0
 18 19  1  0
 18 20  2  0
  9 21  1  0
 21 22  1  0
  6 23  1  0
 22  8  1  0
 20 13  1  0
 23 20  1  0
M  END
>  <docking_score>  (2) 
-6.7400000000000002

$$$$

     RDKit          3D

 23 25  0  0  0  0  0  0  0  0999 V2000
  134.3912  113.3969  132.7855 C   0  0  0  0  0  0  0  0  0  0  0  0
  135.5902  114.1129  133.3723 C   0  0  0  0  0  0  0  0  0  0  0  0
  135.3985  115.5891  133.4915 C   0  0  0  0  0  0  0  0  0  0  0  0
  136.7734  113.7769  132.6323 N   0  0  0  0  0  0  0  0  0  0  0  0
  137.6509  114.8915  132.3934 C   0  0  0  0  0  0  0  0  0  0  0  0
  139.1014  114.4369  132.3249 C   0  0  2  0  0  0  0  0  0  0  0  0
  139.1680  112.9345  132.6048 C   0  0  0  0  0  0  0  0  0  0  0  0
  140.3132  112.7153  133.5316 C   0  0  1  0  0  0  0  0  0  0  0  0
  139.8413  112.2100  134.7840 N   0  0  0  0  0  0  0  0  0  0  0  0
  139.4336  112.9944  135.9085 C   0  0  0  0  0  0  0  0  0  0  0  0
  140.0364  112.5777  136.9812 O   0  0  0  0  0  0  0  0  0  0  0  0
  138.5391  114.0052  135.7796 N   0  0  0  0  0  0  0  0  0  0  0  0
  138.4673  115.3480  135.4406 C   0  0  0  0  0  0  0  0  0  0  0  0
  137.7319  116.3097  136.1795 C   0  0  0  0  0  0  0  0  0  0  0  0
  137.6425  117.6144  135.8846 C   0  0  0  0  0  0  0  0  0  0  0  0
  136.8372  118.5578  136.7318 C   0  0  0  0  0  0  0  0  0  0  0  0
  138.2907  118.0978  134.8020 C   0  0  0  0  0  0  0  0  0  0  0  0
  139.0228  117.2636  134.0249 C   0  0  0  0  0  0  0  0  0  0  0  0
  139.6512  117.8019  132.9563 F   0  0  0  0  0  0  0  0  0  0  0  0
  139.1078  115.8972  134.3458 C   0  0  0  0  0  0  0  0  0  0  0  0
  140.0429  110.8617  134.1964 C   0  0  0  0  0  0  0  0  0  0  0  0
  141.1483  111.5018  133.3765 C   0  0  0  0  0  0  0  0  0  0  0  0
  139.9383  115.1311  133.3801 C   0  0  0  0  0  0  0  0  0  0  0  0
  1  2  1  0
  2  3  1  0
  2  4  1  0
  4  5  1  0
  6  5  1  1
  6  7  1  0
  8  7  1  6
  8  9  1  0
  9 10  1  0
 10 11  2  0
 10 12  1  0
 12 13  1  0
 13 14  2  0
 14 15  1  0
 15 16  1  0
 15 17  2  0
 17 18  1  0
 18 19  1  0
 18 20  2  0
  9 21  1  0
 21 22  1  0
  6 23  1  0
 22  8  1  0
 20 13  1  0
 23 20  1  0
M  END
>  <docking_score>  (3) 
-6.3369999999999997

$$$$
