
     RDKit          3D

 20 21  0  0  0  0  0  0  0  0999 V2000
  135.5063  117.6294  136.8628 O   0  0  0  0  0  0  0  0  0  0  0  0
  136.5099  117.9890  136.2235 C   0  0  0  0  0  0  0  0  0  0  0  0
  137.4423  118.8552  136.8568 N   0  0  0  0  0  0  0  0  0  0  0  0
  137.1805  119.2659  138.1865 C   0  0  0  0  0  0  0  0  0  0  0  0
  136.0189  119.8838  138.5296 C   0  0  0  0  0  0  0  0  0  0  0  0
  135.7269  120.2959  139.8006 C   0  0  0  0  0  0  0  0  0  0  0  0
  134.2133  121.0811  140.1556 Cl  0  0  0  0  0  0  0  0  0  0  0  0
  136.6667  120.0690  140.7830 C   0  0  0  0  0  0  0  0  0  0  0  0
  137.8627  119.4472  140.4963 C   0  0  0  0  0  0  0  0  0  0  0  0
  138.7336  119.2606  141.5162 F   0  0  0  0  0  0  0  0  0  0  0  0
  138.1071  119.0523  139.2022 C   0  0  0  0  0  0  0  0  0  0  0  0
  136.6969  117.5355  134.9041 N   0  0  0  0  0  0  0  0  0  0  0  0
  136.6925  118.3644  133.7236 C   0  0  0  0  0  0  0  0  0  0  0  0
  137.8746  117.7771  132.9398 C   0  0  0  0  0  0  0  0  0  0  0  0
  137.6980  116.3314  133.2205 C   0  0  0  0  0  0  0  0  0  0  0  0
  136.9261  116.1806  134.4729 C   0  0  1  0  0  0  0  0  0  0  0  0
  137.6411  115.3737  135.4961 C   0  0  0  0  0  0  0  0  0  0  0  0
  138.8088  115.6585  135.7043 O   0  0  0  0  0  0  0  0  0  0  0  0
  138.1414  115.4184  132.4971 N   0  0  0  0  0  4  0  0  0  0  0  0
  138.7135  114.4944  131.8867 N   0  0  0  0  0  2  0  0  0  0  0  0
  1  2  2  0
  2  3  1  0
  3  4  1  0
  4  5  2  0
  5  6  1  0
  6  7  1  0
  6  8  2  0
  8  9  1  0
  9 10  1  0
  9 11  2  0
  2 12  1  0
 12 13  1  0
 13 14  1  0
 14 15  1  0
 15 16  1  0
 16 17  1  1
 17 18  2  0
 15 19  2  0
 19 20  2  0
 11  4  1  0
 16 12  1  0
M  CHG  2  19   1  20  -1
M  END
>  <docking_score>  (1) 
-6.883

$$$$

     RDKit          3D

 20 21  0  0  0  0  0  0  0  0999 V2000
  137.6515  116.3249  137.5161 O   0  0  0  0  0  0  0  0  0  0  0  0
  138.0042  117.1023  136.6126 C   0  0  0  0  0  0  0  0  0  0  0  0
  137.9752  118.4998  136.8714 N   0  0  0  0  0  0  0  0  0  0  0  0
  137.5450  118.9370  138.1479 C   0  0  0  0  0  0  0  0  0  0  0  0
  136.2763  119.3757  138.3645 C   0  0  0  0  0  0  0  0  0  0  0  0
  135.8209  119.8061  139.5802 C   0  0  0  0  0  0  0  0  0  0  0  0
  134.1784  120.3529  139.7721 Cl  0  0  0  0  0  0  0  0  0  0  0  0
  136.7022  119.7915  140.6399 C   0  0  0  0  0  0  0  0  0  0  0  0
  138.0007  119.3577  140.4821 C   0  0  0  0  0  0  0  0  0  0  0  0
  138.8047  119.3737  141.5715 F   0  0  0  0  0  0  0  0  0  0  0  0
  138.4084  118.9353  139.2388 C   0  0  0  0  0  0  0  0  0  0  0  0
  138.4188  116.5869  135.3701 N   0  0  0  0  0  0  0  0  0  0  0  0
  139.2649  115.4342  135.1805 C   0  0  0  0  0  0  0  0  0  0  0  0
  138.5593  114.7328  134.0112 C   0  0  0  0  0  0  0  0  0  0  0  0
  138.1617  115.9024  133.1902 C   0  0  0  0  0  0  0  0  0  0  0  0
  138.0900  117.0942  134.0629 C   0  0  1  0  0  0  0  0  0  0  0  0
  136.7580  117.7528  134.0294 C   0  0  0  0  0  0  0  0  0  0  0  0
  136.6964  118.8428  133.4852 O   0  0  0  0  0  0  0  0  0  0  0  0
  137.9327  115.8532  131.9661 N   0  0  0  0  0  4  0  0  0  0  0  0
  137.5377  115.7993  130.7850 N   0  0  0  0  0  2  0  0  0  0  0  0
  1  2  2  0
  2  3  1  0
  3  4  1  0
  4  5  2  0
  5  6  1  0
  6  7  1  0
  6  8  2  0
  8  9  1  0
  9 10  1  0
  9 11  2  0
  2 12  1  0
 12 13  1  0
 13 14  1  0
 14 15  1  0
 15 16  1  0
 16 17  1  1
 17 18  2  0
 15 19  2  0
 19 20  2  0
 11  4  1  0
 16 12  1  0
M  CHG  2  19   1  20  -1
M  END
>  <docking_score>  (2) 
-6.8150000000000004

$$$$

     RDKit          3D

 20 21  0  0  0  0  0  0  0  0999 V2000
  127.9887  124.2377  142.4598 O   0  0  0  0  0  0  0  0  0  0  0  0
  128.2103  125.2230  143.1846 C   0  0  0  0  0  0  0  0  0  0  0  0
  127.1248  125.7928  143.9040 N   0  0  0  0  0  0  0  0  0  0  0  0
  125.8430  125.2086  143.7586 C   0  0  0  0  0  0  0  0  0  0  0  0
  124.9419  125.6751  142.8534 C   0  0  0  0  0  0  0  0  0  0  0  0
  123.6950  125.1403  142.6813 C   0  0  0  0  0  0  0  0  0  0  0  0
  122.6002  125.7989  141.4975 Cl  0  0  0  0  0  0  0  0  0  0  0  0
  123.3388  124.0693  143.4724 C   0  0  0  0  0  0  0  0  0  0  0  0
  124.2093  123.5523  144.4075 C   0  0  0  0  0  0  0  0  0  0  0  0
  123.7849  122.4996  145.1458 F   0  0  0  0  0  0  0  0  0  0  0  0
  125.4513  124.1267  144.5409 C   0  0  0  0  0  0  0  0  0  0  0  0
  129.5147  125.7444  143.2746 N   0  0  0  0  0  0  0  0  0  0  0  0
  130.6731  125.0288  143.7505 C   0  0  0  0  0  0  0  0  0  0  0  0
  131.7354  125.4656  142.7319 C   0  0  0  0  0  0  0  0  0  0  0  0
  131.3710  126.8921  142.5511 C   0  0  0  0  0  0  0  0  0  0  0  0
  129.9494  127.0703  142.9176 C   0  0  1  0  0  0  0  0  0  0  0  0
  129.1400  127.6546  141.8166 C   0  0  0  0  0  0  0  0  0  0  0  0
  128.6264  128.7408  142.0275 O   0  0  0  0  0  0  0  0  0  0  0  0
  132.1598  127.7712  142.1531 N   0  0  0  0  0  4  0  0  0  0  0  0
  132.8754  128.6297  141.6012 N   0  0  0  0  0  2  0  0  0  0  0  0
  1  2  2  0
  2  3  1  0
  3  4  1  0
  4  5  2  0
  5  6  1  0
  6  7  1  0
  6  8  2  0
  8  9  1  0
  9 10  1  0
  9 11  2  0
  2 12  1  0
 12 13  1  0
 13 14  1  0
 14 15  1  0
 15 16  1  0
 16 17  1  6
 17 18  2  0
 15 19  2  0
 19 20  2  0
 11  4  1  0
 16 12  1  0
M  CHG  2  19   1  20  -1
M  END
>  <docking_score>  (3) 
-6.1109999999999998

$$$$
