
     RDKit          3D

 11 11  0  0  0  0  0  0  0  0999 V2000
  136.7562  124.4641  141.0113 O   0  0  0  0  0  0  0  0  0  0  0  0
  136.1208  123.4286  141.2879 C   0  0  0  0  0  0  0  0  0  0  0  0
  136.2964  122.1838  140.6016 N   0  0  0  0  0  0  0  0  0  0  0  0
  135.0934  121.6336  140.1056 C   0  0  0  0  0  0  0  0  0  0  0  0
  134.9075  120.3851  139.7249 C   0  0  0  0  0  0  0  0  0  0  0  0
  135.8896  119.2826  139.7243 C   0  0  0  0  0  0  0  0  0  0  0  0
  135.4045  118.1991  139.1504 C   0  0  0  0  0  0  0  0  0  0  0  0
  136.0864  117.0444  139.0128 F   0  0  0  0  0  0  0  0  0  0  0  0
  137.6651  121.7629  140.5663 C   0  0  0  0  0  0  0  0  0  0  0  0
  137.8822  120.3267  140.5694 C   0  0  0  0  0  0  0  0  0  0  0  0
  137.2068  119.2770  140.2430 N   0  0  0  0  0  0  0  0  0  0  0  0
  1  2  2  0
  2  3  1  0
  3  4  1  0
  4  5  2  0
  5  6  1  0
  6  7  2  3
  7  8  1  0
  3  9  1  0
  9 10  1  0
 10 11  2  0
 11  6  1  0
M  END
>  <docking_score>  (1) 
-4.4939999999999998

$$$$

     RDKit          3D

 11 11  0  0  0  0  0  0  0  0999 V2000
  121.0641  126.0123  140.0287 O   0  0  0  0  0  0  0  0  0  0  0  0
  120.9613  125.7669  141.2459 C   0  0  0  0  0  0  0  0  0  0  0  0
  122.0845  125.6186  142.1221 N   0  0  0  0  0  0  0  0  0  0  0  0
  123.2449  126.2907  141.6775 C   0  0  0  0  0  0  0  0  0  0  0  0
  124.4765  126.0780  142.0974 C   0  0  0  0  0  0  0  0  0  0  0  0
  124.9325  125.1071  143.1120 C   0  0  0  0  0  0  0  0  0  0  0  0
  126.2136  125.2555  143.3864 C   0  0  0  0  0  0  0  0  0  0  0  0
  126.8903  124.5022  144.2763 F   0  0  0  0  0  0  0  0  0  0  0  0
  121.7856  124.8142  143.2691 C   0  0  0  0  0  0  0  0  0  0  0  0
  122.8930  124.0382  143.7996 C   0  0  0  0  0  0  0  0  0  0  0  0
  124.1811  124.1045  143.7711 N   0  0  0  0  0  0  0  0  0  0  0  0
  1  2  2  0
  2  3  1  0
  3  4  1  0
  4  5  2  0
  5  6  1  0
  6  7  2  3
  7  8  1  0
  3  9  1  0
  9 10  1  0
 10 11  2  0
 11  6  1  0
M  END
>  <docking_score>  (2) 
-4.04

$$$$
