
     RDKit          3D

 29 32  0  0  0  0  0  0  0  0999 V2000
  136.6087  122.1156  140.5584 O   0  0  0  0  0  0  0  0  0  0  0  0
  135.5467  121.9507  139.9287 C   0  0  0  0  0  0  0  0  0  0  0  0
  135.4776  120.8651  138.9964 N   0  0  0  0  0  0  0  0  0  0  0  0
  136.6184  120.0158  138.8217 C   0  0  1  0  0  0  0  0  0  0  0  0
  137.2540  119.2880  139.9169 C   0  0  0  0  0  0  0  0  0  0  0  0
  136.3340  118.4992  139.0778 C   0  0  2  0  0  0  0  0  0  0  0  0
  136.8100  117.6797  137.9440 C   0  0  0  0  0  0  0  0  0  0  0  0
  136.0578  117.6631  136.7963 C   0  0  0  0  0  0  0  0  0  0  0  0
  136.4232  116.9261  135.6844 C   0  0  0  0  0  0  0  0  0  0  0  0
  137.5716  116.1935  135.7381 C   0  0  0  0  0  0  0  0  0  0  0  0
  138.3364  116.1954  136.8716 C   0  0  0  0  0  0  0  0  0  0  0  0
  137.9618  116.9374  137.9811 C   0  0  0  0  0  0  0  0  0  0  0  0
  134.4244  122.8218  140.1299 N   0  0  0  0  0  0  0  0  0  0  0  0
  133.1152  122.2486  140.2564 C   0  0  0  0  0  0  0  0  0  0  0  0
  132.1181  123.2391  139.7110 C   0  0  0  0  0  0  0  0  0  0  0  0
  132.1692  124.5398  140.4815 C   0  0  0  0  0  0  0  0  0  0  0  0
  131.0759  124.6311  141.4813 C   0  0  0  0  0  0  0  0  0  0  0  0
  129.7691  124.5655  141.2780 N   0  0  0  0  0  0  0  0  0  0  0  0
  129.1758  124.6971  142.4778 C   0  0  0  0  0  0  0  0  0  0  0  0
  127.7493  124.6909  142.7791 C   0  0  0  0  0  0  0  0  0  0  0  0
  127.0924  125.8253  142.8447 C   0  0  0  0  0  0  0  0  0  0  0  0
  127.7789  127.0838  142.6189 C   0  0  0  0  0  0  0  0  0  0  0  0
  127.4927  127.8703  141.6229 C   0  0  0  0  0  0  0  0  0  0  0  0
  128.2074  129.0942  141.4595 C   0  0  0  0  0  0  0  0  0  0  0  0
  128.7863  130.0854  141.3111 N   0  0  0  0  0  0  0  0  0  0  0  0
  130.1728  124.8390  143.3684 N   0  0  0  0  0  0  0  0  0  0  0  0
  131.2952  124.7972  142.7580 O   0  0  0  0  0  0  0  0  0  0  0  0
  133.4882  124.7628  141.1485 C   0  0  0  0  0  0  0  0  0  0  0  0
  134.5720  124.2424  140.2082 C   0  0  0  0  0  0  0  0  0  0  0  0
  1  2  2  0
  2  3  1  0
  4  3  1  1
  4  5  1  0
  5  6  1  0
  6  7  1  6
  7  8  2  0
  8  9  1  0
  9 10  2  0
 10 11  1  0
 11 12  2  0
  2 13  1  0
 13 14  1  0
 14 15  1  0
 15 16  1  0
 16 17  1  0
 17 18  2  0
 18 19  1  0
 19 20  1  0
 20 21  2  3
 21 22  1  0
 22 23  2  3
 23 24  1  0
 24 25  3  0
 19 26  2  0
 26 27  1  0
 16 28  1  0
 28 29  1  0
  6  4  1  0
 12  7  1  0
 29 13  1  0
 27 17  1  0
M  END
>  <docking_score>  (1) 
-9.048

$$$$

     RDKit          3D

 29 32  0  0  0  0  0  0  0  0999 V2000
  137.1951  123.9977  140.2440 O   0  0  0  0  0  0  0  0  0  0  0  0
  136.1325  124.0537  139.5966 C   0  0  0  0  0  0  0  0  0  0  0  0
  135.3977  122.8394  139.4012 N   0  0  0  0  0  0  0  0  0  0  0  0
  135.9036  121.6163  139.9502 C   0  0  1  0  0  0  0  0  0  0  0  0
  135.1361  120.7622  140.8527 C   0  0  0  0  0  0  0  0  0  0  0  0
  135.1674  120.3328  139.4429 C   0  0  2  0  0  0  0  0  0  0  0  0
  136.1382  119.3360  138.9452 C   0  0  0  0  0  0  0  0  0  0  0  0
  135.7645  118.5369  137.8941 C   0  0  0  0  0  0  0  0  0  0  0  0
  136.6051  117.5766  137.3611 C   0  0  0  0  0  0  0  0  0  0  0  0
  137.8462  117.4247  137.9041 C   0  0  0  0  0  0  0  0  0  0  0  0
  138.2395  118.2101  138.9520 C   0  0  0  0  0  0  0  0  0  0  0  0
  137.3897  119.1701  139.4794 C   0  0  0  0  0  0  0  0  0  0  0  0
  135.6568  125.2971  139.0614 N   0  0  0  0  0  0  0  0  0  0  0  0
  135.5733  125.4529  137.6375 C   0  0  0  0  0  0  0  0  0  0  0  0
  135.8036  126.9070  137.3135 C   0  0  0  0  0  0  0  0  0  0  0  0
  134.7597  127.7811  137.9725 C   0  0  0  0  0  0  0  0  0  0  0  0
  133.6908  128.1753  137.0211 C   0  0  0  0  0  0  0  0  0  0  0  0
  132.6384  128.9479  137.2418 N   0  0  0  0  0  0  0  0  0  0  0  0
  131.9526  129.0202  136.0870 C   0  0  0  0  0  0  0  0  0  0  0  0
  130.7195  129.7508  135.8198 C   0  0  0  0  0  0  0  0  0  0  0  0
  130.7749  131.0082  135.4476 C   0  0  0  0  0  0  0  0  0  0  0  0
  132.0565  131.6733  135.3010 C   0  0  0  0  0  0  0  0  0  0  0  0
  132.7233  132.1426  136.3147 C   0  0  0  0  0  0  0  0  0  0  0  0
  133.9785  132.7859  136.0994 C   0  0  0  0  0  0  0  0  0  0  0  0
  134.9934  133.3178  135.9368 N   0  0  0  0  0  0  0  0  0  0  0  0
  132.6372  128.2722  135.2043 N   0  0  0  0  0  0  0  0  0  0  0  0
  133.6675  127.7779  135.7772 O   0  0  0  0  0  0  0  0  0  0  0  0
  134.1546  127.1438  139.1817 C   0  0  0  0  0  0  0  0  0  0  0  0
  135.2640  126.3841  139.9040 C   0  0  0  0  0  0  0  0  0  0  0  0
  1  2  2  0
  2  3  1  0
  4  3  1  6
  4  5  1  0
  5  6  1  0
  6  7  1  1
  7  8  2  0
  8  9  1  0
  9 10  2  0
 10 11  1  0
 11 12  2  0
  2 13  1  0
 13 14  1  0
 14 15  1  0
 15 16  1  0
 16 17  1  0
 17 18  2  0
 18 19  1  0
 19 20  1  0
 20 21  2  3
 21 22  1  0
 22 23  2  3
 23 24  1  0
 24 25  3  0
 19 26  2  0
 26 27  1  0
 16 28  1  0
 28 29  1  0
  6  4  1  0
 12  7  1  0
 29 13  1  0
 27 17  1  0
M  END
>  <docking_score>  (2) 
-7.9909999999999997

$$$$

     RDKit          3D

 29 32  0  0  0  0  0  0  0  0999 V2000
  139.2261  134.8257  142.1640 O   0  0  0  0  0  0  0  0  0  0  0  0
  140.3842  134.4164  141.9567 C   0  0  0  0  0  0  0  0  0  0  0  0
  140.6396  133.0142  142.1023 N   0  0  0  0  0  0  0  0  0  0  0  0
  139.5675  132.1404  142.4770 C   0  0  1  0  0  0  0  0  0  0  0  0
  138.7306  131.4345  141.5102 C   0  0  0  0  0  0  0  0  0  0  0  0
  139.8106  130.6372  142.1191 C   0  0  2  0  0  0  0  0  0  0  0  0
  139.5840  129.7762  143.2986 C   0  0  0  0  0  0  0  0  0  0  0  0
  140.6779  129.2265  143.9186 C   0  0  0  0  0  0  0  0  0  0  0  0
  140.5644  128.4085  145.0282 C   0  0  0  0  0  0  0  0  0  0  0  0
  139.3196  128.1439  145.5167 C   0  0  0  0  0  0  0  0  0  0  0  0
  138.2157  128.6810  144.9145 C   0  0  0  0  0  0  0  0  0  0  0  0
  138.3397  129.4999  143.8027 C   0  0  0  0  0  0  0  0  0  0  0  0
  141.4329  135.3215  141.5830 N   0  0  0  0  0  0  0  0  0  0  0  0
  142.7189  134.7881  141.2362 C   0  0  0  0  0  0  0  0  0  0  0  0
  143.7642  135.8040  141.6208 C   0  0  0  0  0  0  0  0  0  0  0  0
  143.5501  137.1075  140.8839 C   0  0  0  0  0  0  0  0  0  0  0  0
  144.4604  137.2375  139.7187 C   0  0  0  0  0  0  0  0  0  0  0  0
  145.5282  136.5116  139.4254 N   0  0  0  0  0  0  0  0  0  0  0  0
  146.0317  136.9964  138.2763 C   0  0  0  0  0  0  0  0  0  0  0  0
  147.2049  136.5338  137.5448 C   0  0  0  0  0  0  0  0  0  0  0  0
  147.0929  135.5392  136.6956 C   0  0  0  0  0  0  0  0  0  0  0  0
  145.8080  134.8992  136.4821 C   0  0  0  0  0  0  0  0  0  0  0  0
  145.6731  133.8148  135.7761 C   0  0  0  0  0  0  0  0  0  0  0  0
  144.3795  133.2374  135.6062 C   0  0  0  0  0  0  0  0  0  0  0  0
  143.3343  132.7645  135.4534 N   0  0  0  0  0  0  0  0  0  0  0  0
  145.2275  138.0138  137.9218 N   0  0  0  0  0  0  0  0  0  0  0  0
  144.2990  138.1424  138.7909 O   0  0  0  0  0  0  0  0  0  0  0  0
  142.1334  137.2958  140.4459 C   0  0  0  0  0  0  0  0  0  0  0  0
  141.2347  136.7376  141.5461 C   0  0  0  0  0  0  0  0  0  0  0  0
  1  2  2  0
  2  3  1  0
  4  3  1  6
  4  5  1  0
  5  6  1  0
  6  7  1  1
  7  8  2  0
  8  9  1  0
  9 10  2  0
 10 11  1  0
 11 12  2  0
  2 13  1  0
 13 14  1  0
 14 15  1  0
 15 16  1  0
 16 17  1  0
 17 18  2  0
 18 19  1  0
 19 20  1  0
 20 21  2  3
 21 22  1  0
 22 23  2  3
 23 24  1  0
 24 25  3  0
 19 26  2  0
 26 27  1  0
 16 28  1  0
 28 29  1  0
  6  4  1  0
 12  7  1  0
 29 13  1  0
 27 17  1  0
M  END
>  <docking_score>  (3) 
-7.6500000000000004

$$$$
