
     RDKit          3D

 27 29  0  0  0  0  0  0  0  0999 V2000
  135.5775  124.9348  141.3773 O   0  0  0  0  0  0  0  0  0  0  0  0
  134.5156  124.6594  140.7689 C   0  0  0  0  0  0  0  0  0  0  0  0
  134.2535  123.4978  139.9415 N   0  0  0  0  0  0  0  0  0  0  0  0
  134.6907  122.1907  139.9846 C   0  0  0  0  0  0  0  0  0  0  0  0
  133.8493  121.0954  140.1098 C   0  0  0  0  0  0  0  0  0  0  0  0
  134.3524  119.8112  140.1267 C   0  0  0  0  0  0  0  0  0  0  0  0
  135.6911  119.5372  140.0207 C   0  0  0  0  0  0  0  0  0  0  0  0
  136.1821  118.2626  140.0246 F   0  0  0  0  0  0  0  0  0  0  0  0
  136.5347  120.6187  139.8966 C   0  0  0  0  0  0  0  0  0  0  0  0
  138.2406  120.2907  139.7579 Cl  0  0  0  0  0  0  0  0  0  0  0  0
  136.0491  121.8849  139.8793 C   0  0  0  0  0  0  0  0  0  0  0  0
  133.3853  124.3624  139.1878 C   0  0  2  0  0  0  0  0  0  0  0  0
  134.0877  125.0080  138.0934 C   0  0  0  0  0  0  0  0  0  0  0  0
  135.4695  125.0343  137.9744 C   0  0  0  0  0  0  0  0  0  0  0  0
  136.0642  125.6959  136.9234 C   0  0  0  0  0  0  0  0  0  0  0  0
  135.2575  126.3305  135.9867 C   0  0  0  0  0  0  0  0  0  0  0  0
  133.8882  126.3089  136.0996 C   0  0  0  0  0  0  0  0  0  0  0  0
  133.3705  125.6541  137.1419 N   0  0  0  0  0  0  0  0  0  0  0  0
  133.1569  125.0683  140.4672 C   0  0  2  0  0  0  0  0  0  0  0  0
  132.6960  126.4444  140.4738 C   0  0  0  0  0  0  0  0  0  0  0  0
  131.3513  126.4487  141.2418 C   0  0  0  0  0  0  0  0  0  0  0  0
  130.2920  125.8896  140.4916 N   0  0  0  0  0  0  0  0  0  0  0  0
  129.4164  125.2182  141.1602 O   0  0  0  0  0  0  0  0  0  0  0  0
  129.9641  124.1376  141.7474 N   0  0  0  0  0  0  0  0  0  0  0  0
  129.9842  126.3681  139.3185 O   0  0  0  0  0  0  0  0  0  0  0  0
  129.5317  127.6709  139.4002 C   0  0  0  0  0  0  0  0  0  0  0  0
  128.4086  127.6632  140.2290 F   0  0  0  0  0  0  0  0  0  0  0  0
  1  2  2  0
  2  3  1  0
  3  4  1  0
  4  5  2  0
  5  6  1  0
  6  7  2  0
  7  8  1  0
  7  9  1  0
  9 10  1  0
  9 11  2  0
  3 12  1  0
 12 13  1  6
 13 14  2  0
 14 15  1  0
 15 16  2  0
 16 17  1  0
 17 18  2  0
 12 19  1  0
 19 20  1  6
 20 21  1  0
 21 22  1  0
 22 23  1  0
 23 24  1  0
 22 25  1  0
 25 26  1  0
 26 27  1  0
 19  2  1  0
 11  4  1  0
 18 13  1  0
M  END
>  <docking_score>  (1) 
-6.8019999999999996

$$$$

     RDKit          3D

 27 29  0  0  0  0  0  0  0  0999 V2000
  134.3879  125.4820  141.4919 O   0  0  0  0  0  0  0  0  0  0  0  0
  133.5719  125.0471  140.6442 C   0  0  0  0  0  0  0  0  0  0  0  0
  133.6947  123.8445  139.8434 N   0  0  0  0  0  0  0  0  0  0  0  0
  134.2731  122.6138  140.0720 C   0  0  0  0  0  0  0  0  0  0  0  0
  133.5569  121.4343  140.2109 C   0  0  0  0  0  0  0  0  0  0  0  0
  134.2009  120.2323  140.4190 C   0  0  0  0  0  0  0  0  0  0  0  0
  135.5649  120.1253  140.4985 C   0  0  0  0  0  0  0  0  0  0  0  0
  136.1974  118.9302  140.6914 F   0  0  0  0  0  0  0  0  0  0  0  0
  136.2847  121.2915  140.3624 C   0  0  0  0  0  0  0  0  0  0  0  0
  138.0209  121.1757  140.4581 Cl  0  0  0  0  0  0  0  0  0  0  0  0
  135.6602  122.4779  140.1579 C   0  0  0  0  0  0  0  0  0  0  0  0
  132.9520  124.5626  138.8423 C   0  0  2  0  0  0  0  0  0  0  0  0
  133.8287  125.2803  137.9345 C   0  0  0  0  0  0  0  0  0  0  0  0
  133.3745  126.0604  136.8812 C   0  0  0  0  0  0  0  0  0  0  0  0
  134.2699  126.6851  136.0423 C   0  0  0  0  0  0  0  0  0  0  0  0
  135.6308  126.5230  136.2719 C   0  0  0  0  0  0  0  0  0  0  0  0
  136.0870  125.7506  137.3129 C   0  0  0  0  0  0  0  0  0  0  0  0
  135.1705  125.1679  138.0898 N   0  0  0  0  0  0  0  0  0  0  0  0
  132.3008  125.2532  139.9764 C   0  0  2  0  0  0  0  0  0  0  0  0
  131.6774  126.5498  139.7857 C   0  0  0  0  0  0  0  0  0  0  0  0
  130.2050  126.3953  140.2395 C   0  0  0  0  0  0  0  0  0  0  0  0
  130.0596  126.4329  141.6448 N   0  0  0  0  0  0  0  0  0  0  0  0
  130.6730  127.3913  142.2527 O   0  0  0  0  0  0  0  0  0  0  0  0
  129.8109  128.3171  142.7133 N   0  0  0  0  0  0  0  0  0  0  0  0
  129.0575  125.8337  142.2249 O   0  0  0  0  0  0  0  0  0  0  0  0
  129.0386  124.4810  141.9447 C   0  0  0  0  0  0  0  0  0  0  0  0
  130.1896  123.9295  142.5098 F   0  0  0  0  0  0  0  0  0  0  0  0
  1  2  2  0
  2  3  1  0
  3  4  1  0
  4  5  2  0
  5  6  1  0
  6  7  2  0
  7  8  1  0
  7  9  1  0
  9 10  1  0
  9 11  2  0
  3 12  1  0
 12 13  1  6
 13 14  2  0
 14 15  1  0
 15 16  2  0
 16 17  1  0
 17 18  2  0
 12 19  1  0
 19 20  1  6
 20 21  1  0
 21 22  1  0
 22 23  1  0
 23 24  1  0
 22 25  1  0
 25 26  1  0
 26 27  1  0
 19  2  1  0
 11  4  1  0
 18 13  1  0
M  END
>  <docking_score>  (2) 
-6.7460000000000004

$$$$

     RDKit          3D

 27 29  0  0  0  0  0  0  0  0999 V2000
  145.4755  139.8991  139.7039 O   0  0  0  0  0  0  0  0  0  0  0  0
  145.3453  138.7343  140.1510 C   0  0  0  0  0  0  0  0  0  0  0  0
  146.3530  137.9313  140.8163 N   0  0  0  0  0  0  0  0  0  0  0  0
  147.4133  138.2417  141.6415 C   0  0  0  0  0  0  0  0  0  0  0  0
  148.1644  139.4027  141.5354 C   0  0  0  0  0  0  0  0  0  0  0  0
  149.2014  139.6604  142.4077 C   0  0  0  0  0  0  0  0  0  0  0  0
  149.5503  138.8038  143.4192 C   0  0  0  0  0  0  0  0  0  0  0  0
  150.5697  139.0709  144.2883 F   0  0  0  0  0  0  0  0  0  0  0  0
  148.8105  137.6478  143.5321 C   0  0  0  0  0  0  0  0  0  0  0  0
  149.2372  136.5470  144.8139 Cl  0  0  0  0  0  0  0  0  0  0  0  0
  147.7894  137.3859  142.6788 C   0  0  0  0  0  0  0  0  0  0  0  0
  145.6868  136.7996  140.2292 C   0  0  2  0  0  0  0  0  0  0  0  0
  146.2446  136.4608  138.9323 C   0  0  0  0  0  0  0  0  0  0  0  0
  147.5972  136.5340  138.6330 C   0  0  0  0  0  0  0  0  0  0  0  0
  148.0468  136.2270  137.3683 C   0  0  0  0  0  0  0  0  0  0  0  0
  147.1248  135.8406  136.4032 C   0  0  0  0  0  0  0  0  0  0  0  0
  145.7836  135.7672  136.6931 C   0  0  0  0  0  0  0  0  0  0  0  0
  145.4083  136.0801  137.9359 N   0  0  0  0  0  0  0  0  0  0  0  0
  144.4524  137.6067  140.3392 C   0  0  2  0  0  0  0  0  0  0  0  0
  143.3092  137.3182  139.4931 C   0  0  0  0  0  0  0  0  0  0  0  0
  142.1942  136.7956  140.4321 C   0  0  0  0  0  0  0  0  0  0  0  0
  141.7404  135.5054  140.0760 N   0  0  0  0  0  0  0  0  0  0  0  0
  142.1863  135.0353  138.9604 O   0  0  0  0  0  0  0  0  0  0  0  0
  141.1884  134.8023  138.0874 N   0  0  0  0  0  0  0  0  0  0  0  0
  141.2746  134.6919  140.9822 O   0  0  0  0  0  0  0  0  0  0  0  0
  142.1857  134.4836  141.9996 C   0  0  0  0  0  0  0  0  0  0  0  0
  143.0190  133.4392  141.5957 F   0  0  0  0  0  0  0  0  0  0  0  0
  1  2  2  0
  2  3  1  0
  3  4  1  0
  4  5  2  0
  5  6  1  0
  6  7  2  0
  7  8  1  0
  7  9  1  0
  9 10  1  0
  9 11  2  0
  3 12  1  0
 12 13  1  6
 13 14  2  0
 14 15  1  0
 15 16  2  0
 16 17  1  0
 17 18  2  0
 12 19  1  0
 19 20  1  6
 20 21  1  0
 21 22  1  0
 22 23  1  0
 23 24  1  0
 22 25  1  0
 25 26  1  0
 26 27  1  0
 19  2  1  0
 11  4  1  0
 18 13  1  0
M  END
>  <docking_score>  (3) 
-6.6980000000000004

$$$$
