
     RDKit          3D

 29 32  0  0  0  0  0  0  0  0999 V2000
  144.6759  133.9152  136.1334 O   0  0  0  0  0  0  0  0  0  0  0  0
  144.8531  132.7976  135.5462 C   0  0  0  0  0  0  0  0  0  0  0  0
  143.6821  132.0171  135.2334 N   0  0  0  0  0  0  0  0  0  0  0  0
  142.4009  132.5700  135.6156 C   0  0  2  0  0  0  0  0  0  0  0  0
  141.7722  132.1243  136.9173 C   0  0  0  0  0  0  0  0  0  0  0  0
  141.2268  131.5909  135.6364 C   0  0  1  0  0  0  0  0  0  0  0  0
  139.9734  132.1711  135.0991 C   0  0  0  0  0  0  0  0  0  0  0  0
  138.9124  132.3585  135.9496 C   0  0  0  0  0  0  0  0  0  0  0  0
  137.7163  132.8983  135.5077 C   0  0  0  0  0  0  0  0  0  0  0  0
  137.6208  133.2446  134.1798 C   0  0  0  0  0  0  0  0  0  0  0  0
  138.6937  133.0508  133.3382 C   0  0  0  0  0  0  0  0  0  0  0  0
  139.8862  132.5153  133.7674 C   0  0  0  0  0  0  0  0  0  0  0  0
  146.1427  132.3080  135.1981 N   0  0  0  0  0  0  0  0  0  0  0  0
  147.1302  133.3492  134.8581 C   0  0  0  0  0  0  0  0  0  0  0  0
  146.5718  134.3331  133.8482 C   0  0  0  0  0  0  0  0  0  0  0  0
  147.5890  134.3098  132.6700 C   0  0  2  0  0  0  0  0  0  0  0  0
  148.1257  132.8755  132.8006 C   0  0  0  0  0  0  0  0  0  0  0  0
  147.2395  131.9644  132.8130 N   0  0  0  0  0  0  0  0  0  0  0  0
  147.1841  130.6042  132.9116 C   0  0  0  0  0  0  0  0  0  0  0  0
  147.3969  129.5767  131.9099 C   0  0  0  0  0  0  0  0  0  0  0  0
  147.6155  129.7478  130.5689 C   0  0  0  0  0  0  0  0  0  0  0  0
  147.8045  128.7559  129.6537 C   0  0  0  0  0  0  0  0  0  0  0  0
  147.7814  127.4581  130.0670 C   0  0  0  0  0  0  0  0  0  0  0  0
  147.5609  127.2445  131.4284 C   0  0  0  0  0  0  0  0  0  0  0  0
  147.3810  128.2474  132.2892 N   0  0  0  0  0  0  0  0  0  0  0  0
  146.8307  130.1865  134.1489 N   0  0  0  0  0  0  0  0  0  0  0  0
  146.5638  131.0367  135.1578 O   0  0  0  0  0  0  0  0  0  0  0  0
  148.7180  135.2144  133.1084 C   0  0  0  0  0  0  0  0  0  0  0  0
  149.2069  136.2595  131.7088 S   0  0  0  0  0  0  0  0  0  0  0  0
  1  2  2  0
  2  3  1  0
  4  3  1  1
  4  5  1  0
  5  6  1  0
  6  7  1  6
  7  8  2  0
  8  9  1  0
  9 10  2  0
 10 11  1  0
 11 12  2  0
  2 13  1  0
 13 14  1  0
 14 15  1  0
 15 16  1  0
 16 17  1  0
 17 18  2  3
 18 19  1  0
 19 20  1  0
 20 21  2  0
 21 22  1  0
 22 23  2  0
 23 24  1  0
 24 25  2  0
 19 26  2  3
 26 27  1  0
 16 28  1  1
 28 29  1  0
  6  4  1  0
 12  7  1  0
 27 13  1  0
 25 20  1  0
M  END
>  <docking_score>  (1) 
-8.5050000000000008

$$$$

     RDKit          3D

 29 32  0  0  0  0  0  0  0  0999 V2000
  131.7825  127.2415  139.3536 O   0  0  0  0  0  0  0  0  0  0  0  0
  132.7724  126.4495  139.2195 C   0  0  0  0  0  0  0  0  0  0  0  0
  133.5318  126.5341  137.9970 N   0  0  0  0  0  0  0  0  0  0  0  0
  133.1027  127.5133  137.0220 C   0  0  2  0  0  0  0  0  0  0  0  0
  133.5071  127.3296  135.5760 C   0  0  0  0  0  0  0  0  0  0  0  0
  134.2077  128.3618  136.3922 C   0  0  1  0  0  0  0  0  0  0  0  0
  133.8266  129.7839  136.2225 C   0  0  0  0  0  0  0  0  0  0  0  0
  134.7387  130.7573  136.5463 C   0  0  0  0  0  0  0  0  0  0  0  0
  134.4424  132.1027  136.4072 C   0  0  0  0  0  0  0  0  0  0  0  0
  133.1965  132.4391  135.9309 C   0  0  0  0  0  0  0  0  0  0  0  0
  132.2916  131.4515  135.6101 C   0  0  0  0  0  0  0  0  0  0  0  0
  132.5763  130.1122  135.7446 C   0  0  0  0  0  0  0  0  0  0  0  0
  133.1424  125.5055  140.2175 N   0  0  0  0  0  0  0  0  0  0  0  0
  133.7494  126.0890  141.4283 C   0  0  0  0  0  0  0  0  0  0  0  0
  134.8639  127.0560  141.0778 C   0  0  0  0  0  0  0  0  0  0  0  0
  136.1056  126.5247  141.8518 C   0  0  2  0  0  0  0  0  0  0  0  0
  135.7709  125.0257  141.9097 C   0  0  0  0  0  0  0  0  0  0  0  0
  135.5171  124.4834  140.7884 N   0  0  0  0  0  0  0  0  0  0  0  0
  135.1737  123.2515  140.3117 C   0  0  0  0  0  0  0  0  0  0  0  0
  135.9917  122.0860  140.0345 C   0  0  0  0  0  0  0  0  0  0  0  0
  135.8081  121.1491  139.0527 C   0  0  0  0  0  0  0  0  0  0  0  0
  136.5950  120.0598  138.8258 C   0  0  0  0  0  0  0  0  0  0  0  0
  137.6757  119.8432  139.6263 C   0  0  0  0  0  0  0  0  0  0  0  0
  137.8948  120.7782  140.6391 C   0  0  0  0  0  0  0  0  0  0  0  0
  137.0975  121.8313  140.8242 N   0  0  0  0  0  0  0  0  0  0  0  0
  133.8551  123.1540  140.0249 N   0  0  0  0  0  0  0  0  0  0  0  0
  132.9936  124.1741  140.1952 O   0  0  0  0  0  0  0  0  0  0  0  0
  135.9383  127.0396  143.2631 C   0  0  0  0  0  0  0  0  0  0  0  0
  135.9028  128.8528  143.2235 S   0  0  0  0  0  0  0  0  0  0  0  0
  1  2  2  0
  2  3  1  0
  4  3  1  1
  4  5  1  0
  5  6  1  0
  6  7  1  6
  7  8  2  0
  8  9  1  0
  9 10  2  0
 10 11  1  0
 11 12  2  0
  2 13  1  0
 13 14  1  0
 14 15  1  0
 15 16  1  0
 16 17  1  0
 17 18  2  3
 18 19  1  0
 19 20  1  0
 20 21  2  0
 21 22  1  0
 22 23  2  0
 23 24  1  0
 24 25  2  0
 19 26  2  3
 26 27  1  0
 16 28  1  1
 28 29  1  0
  6  4  1  0
 12  7  1  0
 27 13  1  0
 25 20  1  0
M  END
>  <docking_score>  (2) 
-7.9189999999999996

$$$$

     RDKit          3D

 29 32  0  0  0  0  0  0  0  0999 V2000
  131.5439  126.0417  138.8870 O   0  0  0  0  0  0  0  0  0  0  0  0
  132.6918  125.4893  138.9347 C   0  0  0  0  0  0  0  0  0  0  0  0
  133.6038  125.7546  137.8503 N   0  0  0  0  0  0  0  0  0  0  0  0
  133.1361  126.6271  136.7953 C   0  0  2  0  0  0  0  0  0  0  0  0
  133.8297  126.5852  135.4516 C   0  0  0  0  0  0  0  0  0  0  0  0
  134.0988  127.7337  136.3634 C   0  0  1  0  0  0  0  0  0  0  0  0
  133.4226  129.0259  136.1004 C   0  0  0  0  0  0  0  0  0  0  0  0
  132.2402  129.0250  135.4033 C   0  0  0  0  0  0  0  0  0  0  0  0
  131.5602  130.1996  135.1286 C   0  0  0  0  0  0  0  0  0  0  0  0
  132.1086  131.3782  135.5784 C   0  0  0  0  0  0  0  0  0  0  0  0
  133.2957  131.3637  136.2767 C   0  0  0  0  0  0  0  0  0  0  0  0
  133.9789  130.2023  136.5548 C   0  0  0  0  0  0  0  0  0  0  0  0
  133.0913  124.6376  140.0021 N   0  0  0  0  0  0  0  0  0  0  0  0
  133.7141  125.3283  141.1466 C   0  0  0  0  0  0  0  0  0  0  0  0
  134.8105  126.2729  140.6932 C   0  0  0  0  0  0  0  0  0  0  0  0
  136.0726  125.8219  141.4851 C   0  0  2  0  0  0  0  0  0  0  0  0
  135.7563  124.3301  141.6770 C   0  0  0  0  0  0  0  0  0  0  0  0
  135.4880  123.6916  140.6111 N   0  0  0  0  0  0  0  0  0  0  0  0
  135.1499  122.4201  140.2480 C   0  0  0  0  0  0  0  0  0  0  0  0
  135.9760  121.2434  140.0550 C   0  0  0  0  0  0  0  0  0  0  0  0
  137.1788  120.9595  140.6449 C   0  0  0  0  0  0  0  0  0  0  0  0
  137.9328  119.8441  140.4335 C   0  0  0  0  0  0  0  0  0  0  0  0
  137.4871  118.8969  139.5618 C   0  0  0  0  0  0  0  0  0  0  0  0
  136.2635  119.1521  138.9408 C   0  0  0  0  0  0  0  0  0  0  0  0
  135.5584  120.2590  139.1787 N   0  0  0  0  0  0  0  0  0  0  0  0
  133.8274  122.2854  139.9964 N   0  0  0  0  0  0  0  0  0  0  0  0
  132.9576  123.3078  140.0961 O   0  0  0  0  0  0  0  0  0  0  0  0
  135.9258  126.4538  142.8504 C   0  0  0  0  0  0  0  0  0  0  0  0
  136.4135  128.1977  142.7431 S   0  0  0  0  0  0  0  0  0  0  0  0
  1  2  2  0
  2  3  1  0
  4  3  1  1
  4  5  1  0
  5  6  1  0
  6  7  1  6
  7  8  2  0
  8  9  1  0
  9 10  2  0
 10 11  1  0
 11 12  2  0
  2 13  1  0
 13 14  1  0
 14 15  1  0
 15 16  1  0
 16 17  1  0
 17 18  2  3
 18 19  1  0
 19 20  1  0
 20 21  2  0
 21 22  1  0
 22 23  2  0
 23 24  1  0
 24 25  2  0
 19 26  2  3
 26 27  1  0
 16 28  1  1
 28 29  1  0
  6  4  1  0
 12  7  1  0
 27 13  1  0
 25 20  1  0
M  END
>  <docking_score>  (3) 
-7.907

$$$$
