
     RDKit          3D

 11 11  0  0  0  0  0  0  0  0999 V2000
  144.7166  133.1236  133.7351 O   0  0  0  0  0  0  0  0  0  0  0  0
  144.1111  132.8327  134.7928 C   0  0  0  0  0  0  0  0  0  0  0  0
  142.7309  133.1307  134.8706 N   0  0  0  0  0  0  0  0  0  0  0  0
  142.2275  134.1621  133.9963 C   0  0  0  0  0  0  0  0  0  0  0  0
  140.9725  134.2072  133.5056 C   0  0  0  0  0  0  0  0  0  0  0  0
  139.8630  133.2910  133.7105 C   0  0  0  0  0  0  0  0  0  0  0  0
  138.6768  133.5952  133.2442 C   0  0  0  0  0  0  0  0  0  0  0  0
  137.6247  132.7957  133.4015 F   0  0  0  0  0  0  0  0  0  0  0  0
  141.9707  132.3659  135.8263 C   0  0  0  0  0  0  0  0  0  0  0  0
  140.8166  131.6561  135.2821 C   0  0  0  0  0  0  0  0  0  0  0  0
  139.9314  132.0480  134.3919 N   0  0  0  0  0  0  0  0  0  0  0  0
  1  2  2  0
  2  3  1  0
  3  4  1  0
  4  5  2  0
  5  6  1  0
  6  7  2  3
  7  8  1  0
  3  9  1  0
  9 10  1  0
 10 11  2  0
 11  6  1  0
M  END
>  <docking_score>  (1) 
-4.4379999999999997

$$$$

     RDKit          3D

 11 11  0  0  0  0  0  0  0  0999 V2000
  121.6930  127.6901  139.7391 O   0  0  0  0  0  0  0  0  0  0  0  0
  121.8916  127.6185  140.9742 C   0  0  0  0  0  0  0  0  0  0  0  0
  122.4607  126.4298  141.4869 N   0  0  0  0  0  0  0  0  0  0  0  0
  123.8922  126.4062  141.6651 C   0  0  0  0  0  0  0  0  0  0  0  0
  124.5370  125.6829  142.6027 C   0  0  0  0  0  0  0  0  0  0  0  0
  124.0008  124.7923  143.6183 C   0  0  0  0  0  0  0  0  0  0  0  0
  124.8189  124.0767  144.3501 C   0  0  0  0  0  0  0  0  0  0  0  0
  124.3855  123.2449  145.2941 F   0  0  0  0  0  0  0  0  0  0  0  0
  121.5397  125.3599  141.7756 C   0  0  0  0  0  0  0  0  0  0  0  0
  121.5879  124.8456  143.1413 C   0  0  0  0  0  0  0  0  0  0  0  0
  122.6251  124.6078  143.9142 N   0  0  0  0  0  0  0  0  0  0  0  0
  1  2  2  0
  2  3  1  0
  3  4  1  0
  4  5  2  0
  5  6  1  0
  6  7  2  3
  7  8  1  0
  3  9  1  0
  9 10  1  0
 10 11  2  0
 11  6  1  0
M  END
>  <docking_score>  (2) 
-4.4109999999999996

$$$$

     RDKit          3D

 11 11  0  0  0  0  0  0  0  0999 V2000
  144.3265  116.0618  162.9034 O   0  0  0  0  0  0  0  0  0  0  0  0
  143.3868  116.1600  162.0804 C   0  0  0  0  0  0  0  0  0  0  0  0
  142.0866  115.8110  162.5134 N   0  0  0  0  0  0  0  0  0  0  0  0
  141.1773  116.8910  162.8110 C   0  0  0  0  0  0  0  0  0  0  0  0
  139.8373  116.8249  162.6771 C   0  0  0  0  0  0  0  0  0  0  0  0
  139.0033  115.7229  162.2272 C   0  0  0  0  0  0  0  0  0  0  0  0
  137.6990  115.8257  162.3000 C   0  0  0  0  0  0  0  0  0  0  0  0
  136.8858  114.8498  161.9032 F   0  0  0  0  0  0  0  0  0  0  0  0
  141.8098  114.4005  162.6138 C   0  0  0  0  0  0  0  0  0  0  0  0
  140.6522  113.9355  161.8551 C   0  0  0  0  0  0  0  0  0  0  0  0
  139.4725  114.4941  161.6943 N   0  0  0  0  0  0  0  0  0  0  0  0
  1  2  2  0
  2  3  1  0
  3  4  1  0
  4  5  2  0
  5  6  1  0
  6  7  2  3
  7  8  1  0
  3  9  1  0
  9 10  1  0
 10 11  2  0
 11  6  1  0
M  END
>  <docking_score>  (3) 
-2.3300000000000001

$$$$
