
     RDKit          3D

 20 22  0  0  0  0  0  0  0  0999 V2000
  118.6219  122.2568  141.9382 O   0  0  0  0  0  0  0  0  0  0  0  0
  119.3501  123.2777  141.7625 C   0  0  0  0  0  0  0  0  0  0  0  0
  120.3101  123.4759  142.8143 N   0  0  0  0  0  0  0  0  0  0  0  0
  121.5663  124.1504  142.8829 C   0  0  0  0  0  0  0  0  0  0  0  0
  122.3120  123.4902  143.8422 C   0  0  0  0  0  0  0  0  0  0  0  0
  123.5924  123.9192  144.1359 C   0  0  0  0  0  0  0  0  0  0  0  0
  124.5752  123.1124  145.3455 Cl  0  0  0  0  0  0  0  0  0  0  0  0
  124.0750  125.0113  143.4407 C   0  0  0  0  0  0  0  0  0  0  0  0
  123.3185  125.6712  142.4760 C   0  0  0  0  0  0  0  0  0  0  0  0
  123.7817  126.7400  141.7908 F   0  0  0  0  0  0  0  0  0  0  0  0
  122.0421  125.2390  142.1870 C   0  0  0  0  0  0  0  0  0  0  0  0
  119.0748  124.0130  140.5751 N   0  0  0  0  0  0  0  0  0  0  0  0
  119.3434  125.3602  140.0964 C   0  0  0  0  0  0  0  0  0  0  0  0
  118.3594  125.9387  139.1652 C   0  0  0  0  0  0  0  0  0  0  0  0
  118.6437  127.4213  139.2063 C   0  0  2  0  0  0  0  0  0  0  0  0
  120.1159  127.4772  139.5740 C   0  0  0  0  0  0  0  0  0  0  0  0
  120.3103  126.2128  140.3145 C   0  0  0  0  0  0  0  0  0  0  0  0
  121.5253  126.1249  141.1511 C   0  0  0  0  0  0  0  0  0  0  0  0
  122.3034  127.0816  140.8749 O   0  0  0  0  0  0  0  0  0  0  0  0
  117.8553  128.0357  140.1416 F   0  0  0  0  0  0  0  0  0  0  0  0
  1  2  2  0
  2  3  1  0
  3  4  1  0
  4  5  2  0
  5  6  1  0
  6  7  1  0
  6  8  2  0
  8  9  1  0
  9 10  1  0
  9 11  2  0
  2 12  1  0
 12 13  1  0
 13 14  1  0
 14 15  1  0
 15 16  1  0
 16 17  1  0
 17 18  1  0
 18 19  2  0
 15 20  1  1
 11  4  1  0
 18 11  1  0
 13 17  2  0
M  END
>  <docking_score>  (1) 
-7.5300000000000002

$$$$

     RDKit          3D

 20 22  0  0  0  0  0  0  0  0999 V2000
  135.7866  117.9990  132.1783 O   0  0  0  0  0  0  0  0  0  0  0  0
  136.4373  117.3793  133.0704 C   0  0  0  0  0  0  0  0  0  0  0  0
  136.6880  118.1734  134.2425 N   0  0  0  0  0  0  0  0  0  0  0  0
  136.9567  117.8523  135.6072 C   0  0  0  0  0  0  0  0  0  0  0  0
  136.4665  118.9039  136.3595 C   0  0  0  0  0  0  0  0  0  0  0  0
  136.5820  118.8792  137.7363 C   0  0  0  0  0  0  0  0  0  0  0  0
  135.9747  120.1911  138.7314 Cl  0  0  0  0  0  0  0  0  0  0  0  0
  137.1954  117.7800  138.3060 C   0  0  0  0  0  0  0  0  0  0  0  0
  137.6867  116.7247  137.5421 C   0  0  0  0  0  0  0  0  0  0  0  0
  138.2881  115.6455  138.0900 F   0  0  0  0  0  0  0  0  0  0  0  0
  137.5688  116.7545  136.1693 C   0  0  0  0  0  0  0  0  0  0  0  0
  136.7847  116.0397  132.7370 N   0  0  0  0  0  0  0  0  0  0  0  0
  137.7606  115.0677  133.2052 C   0  0  0  0  0  0  0  0  0  0  0  0
  138.2550  114.0977  132.2129 C   0  0  0  0  0  0  0  0  0  0  0  0
  139.5199  113.5527  132.8321 C   0  0  2  0  0  0  0  0  0  0  0  0
  139.2695  113.7150  134.3209 C   0  0  0  0  0  0  0  0  0  0  0  0
  138.3218  114.8485  134.3655 C   0  0  0  0  0  0  0  0  0  0  0  0
  138.1709  115.5239  135.6712 C   0  0  0  0  0  0  0  0  0  0  0  0
  138.7165  114.8303  136.5758 O   0  0  0  0  0  0  0  0  0  0  0  0
  140.6078  114.2691  132.4115 F   0  0  0  0  0  0  0  0  0  0  0  0
  1  2  2  0
  2  3  1  0
  3  4  1  0
  4  5  2  0
  5  6  1  0
  6  7  1  0
  6  8  2  0
  8  9  1  0
  9 10  1  0
  9 11  2  0
  2 12  1  0
 12 13  1  0
 13 14  1  0
 14 15  1  0
 15 16  1  0
 16 17  1  0
 17 18  1  0
 18 19  2  0
 15 20  1  6
 11  4  1  0
 18 11  1  0
 13 17  2  0
M  END
>  <docking_score>  (2) 
-7.2169999999999996

$$$$
