
     RDKit          3D

 11 11  0  0  0  0  0  0  0  0999 V2000
  141.9680  131.8568  138.1281 O   0  0  0  0  0  0  0  0  0  0  0  0
  142.0522  131.6449  136.8953 C   0  0  0  0  0  0  0  0  0  0  0  0
  141.4015  132.4767  135.9288 N   0  0  0  0  0  0  0  0  0  0  0  0
  140.3436  131.8693  135.2272 C   0  0  0  0  0  0  0  0  0  0  0  0
  139.7631  132.2314  134.0712 C   0  0  0  0  0  0  0  0  0  0  0  0
  140.1532  133.3964  133.2862 C   0  0  0  0  0  0  0  0  0  0  0  0
  139.3197  133.8226  132.3497 C   0  0  0  0  0  0  0  0  0  0  0  0
  138.1607  133.1398  132.1908 F   0  0  0  0  0  0  0  0  0  0  0  0
  141.9329  133.7942  135.8319 C   0  0  0  0  0  0  0  0  0  0  0  0
  142.0658  134.3098  134.4641 C   0  0  0  0  0  0  0  0  0  0  0  0
  141.3570  134.1687  133.3945 N   0  0  0  0  0  0  0  0  0  0  0  0
  1  2  2  0
  2  3  1  0
  3  4  1  0
  4  5  2  0
  5  6  1  0
  6  7  2  3
  7  8  1  0
  3  9  1  0
  9 10  1  0
 10 11  2  0
 11  6  1  0
M  END
>  <docking_score>  (1) 
-4.399

$$$$

     RDKit          3D

 11 11  0  0  0  0  0  0  0  0999 V2000
  144.2938  132.2109  135.3940 O   0  0  0  0  0  0  0  0  0  0  0  0
  143.1743  132.1803  135.9575 C   0  0  0  0  0  0  0  0  0  0  0  0
  142.0122  132.7905  135.3863 N   0  0  0  0  0  0  0  0  0  0  0  0
  140.8381  132.0165  135.4401 C   0  0  0  0  0  0  0  0  0  0  0  0
  139.7015  132.1342  134.7340 C   0  0  0  0  0  0  0  0  0  0  0  0
  139.4678  133.1538  133.7182 C   0  0  0  0  0  0  0  0  0  0  0  0
  138.2218  133.3626  133.3220 C   0  0  0  0  0  0  0  0  0  0  0  0
  137.2525  132.6085  133.8936 F   0  0  0  0  0  0  0  0  0  0  0  0
  142.2322  134.0918  134.8516 C   0  0  0  0  0  0  0  0  0  0  0  0
  141.5687  134.3552  133.5691 C   0  0  0  0  0  0  0  0  0  0  0  0
  140.4367  133.9886  133.0688 N   0  0  0  0  0  0  0  0  0  0  0  0
  1  2  2  0
  2  3  1  0
  3  4  1  0
  4  5  2  0
  5  6  1  0
  6  7  2  3
  7  8  1  0
  3  9  1  0
  9 10  1  0
 10 11  2  0
 11  6  1  0
M  END
>  <docking_score>  (2) 
-4.3639999999999999

$$$$

     RDKit          3D

 11 11  0  0  0  0  0  0  0  0999 V2000
  134.9070  118.0559  139.1069 O   0  0  0  0  0  0  0  0  0  0  0  0
  136.1218  117.7565  139.0286 C   0  0  0  0  0  0  0  0  0  0  0  0
  136.8311  117.7515  137.7851 N   0  0  0  0  0  0  0  0  0  0  0  0
  136.2743  118.5535  136.7716 C   0  0  0  0  0  0  0  0  0  0  0  0
  136.4799  118.5220  135.4445 C   0  0  0  0  0  0  0  0  0  0  0  0
  137.3768  117.5879  134.7746 C   0  0  0  0  0  0  0  0  0  0  0  0
  137.7313  117.8528  133.5266 C   0  0  0  0  0  0  0  0  0  0  0  0
  137.2307  118.9783  132.9632 F   0  0  0  0  0  0  0  0  0  0  0  0
  137.9941  116.9301  137.7733 C   0  0  0  0  0  0  0  0  0  0  0  0
  138.1865  116.1456  136.5477 C   0  0  0  0  0  0  0  0  0  0  0  0
  137.9459  116.3813  135.3016 N   0  0  0  0  0  0  0  0  0  0  0  0
  1  2  2  0
  2  3  1  0
  3  4  1  0
  4  5  2  0
  5  6  1  0
  6  7  2  3
  7  8  1  0
  3  9  1  0
  9 10  1  0
 10 11  2  0
 11  6  1  0
M  END
>  <docking_score>  (3) 
-4.3010000000000002

$$$$
