
     RDKit          3D

 11 11  0  0  0  0  0  0  0  0999 V2000
  123.9193  126.0740  142.3762 O   0  0  0  0  0  0  0  0  0  0  0  0
  123.9392  126.5987  141.2369 C   0  0  0  0  0  0  0  0  0  0  0  0
  122.8305  126.5271  140.3440 N   0  0  0  0  0  0  0  0  0  0  0  0
  121.9038  127.6324  140.3199 C   0  0  0  0  0  0  0  0  0  0  0  0
  120.5814  127.5373  140.0395 C   0  0  0  0  0  0  0  0  0  0  0  0
  119.8235  126.3392  139.7107 C   0  0  0  0  0  0  0  0  0  0  0  0
  118.5959  126.5067  139.3041 C   0  0  0  0  0  0  0  0  0  0  0  0
  118.0613  127.7474  139.1966 F   0  0  0  0  0  0  0  0  0  0  0  0
  122.7461  125.3431  139.5397 C   0  0  0  0  0  0  0  0  0  0  0  0
  121.5200  124.5422  139.7343 C   0  0  0  0  0  0  0  0  0  0  0  0
  120.3129  125.0141  139.7987 N   0  0  0  0  0  0  0  0  0  0  0  0
  1  2  2  0
  2  3  1  0
  3  4  1  0
  4  5  2  0
  5  6  1  0
  6  7  2  3
  7  8  1  0
  3  9  1  0
  9 10  1  0
 10 11  2  0
 11  6  1  0
M  END
>  <docking_score>  (1) 
-4.4500000000000002

$$$$

     RDKit          3D

 11 11  0  0  0  0  0  0  0  0999 V2000
  122.4094  121.0154  144.2316 O   0  0  0  0  0  0  0  0  0  0  0  0
  122.6867  122.2313  144.3667 C   0  0  0  0  0  0  0  0  0  0  0  0
  122.9907  123.0728  143.2571 N   0  0  0  0  0  0  0  0  0  0  0  0
  124.2128  123.8381  143.2983 C   0  0  0  0  0  0  0  0  0  0  0  0
  124.3988  125.0455  142.7117 C   0  0  0  0  0  0  0  0  0  0  0  0
  123.4399  125.8163  141.9343 C   0  0  0  0  0  0  0  0  0  0  0  0
  123.8901  126.8719  141.3151 C   0  0  0  0  0  0  0  0  0  0  0  0
  125.1959  127.2248  141.3998 F   0  0  0  0  0  0  0  0  0  0  0  0
  122.0360  123.0726  142.1873 C   0  0  0  0  0  0  0  0  0  0  0  0
  121.4250  124.3857  141.8954 C   0  0  0  0  0  0  0  0  0  0  0  0
  122.0645  125.5108  141.8000 N   0  0  0  0  0  0  0  0  0  0  0  0
  1  2  2  0
  2  3  1  0
  3  4  1  0
  4  5  2  0
  5  6  1  0
  6  7  2  3
  7  8  1  0
  3  9  1  0
  9 10  1  0
 10 11  2  0
 11  6  1  0
M  END
>  <docking_score>  (2) 
-2.9620000000000002

$$$$
