
     RDKit          3D

 29 32  0  0  0  0  0  0  0  0999 V2000
  136.2211  125.0287  138.6398 O   0  0  0  0  0  0  0  0  0  0  0  0
  135.3828  124.5262  139.4628 C   0  0  0  0  0  0  0  0  0  0  0  0
  134.2467  125.2538  139.8922 N   0  0  0  0  0  0  0  0  0  0  0  0
  134.0441  126.6046  139.3821 C   0  0  2  0  0  0  0  0  0  0  0  0
  132.7142  127.2890  139.6478 C   0  0  0  0  0  0  0  0  0  0  0  0
  132.9386  126.6680  138.2955 C   0  0  1  0  0  0  0  0  0  0  0  0
  133.2903  127.5452  137.1656 C   0  0  0  0  0  0  0  0  0  0  0  0
  132.9824  128.8478  137.1646 C   0  0  0  0  0  0  0  0  0  0  0  0
  133.2602  129.7572  136.1951 C   0  0  0  0  0  0  0  0  0  0  0  0
  133.9584  129.1952  135.0808 C   0  0  0  0  0  0  0  0  0  0  0  0
  134.2973  127.8821  135.0253 C   0  0  0  0  0  0  0  0  0  0  0  0
  133.9834  127.0132  136.0475 C   0  0  0  0  0  0  0  0  0  0  0  0
  135.6435  123.2097  139.9249 N   0  0  0  0  0  0  0  0  0  0  0  0
  136.8855  122.9677  140.5951 C   0  0  0  0  0  0  0  0  0  0  0  0
  137.2629  121.5663  140.8141 C   0  0  0  0  0  0  0  0  0  0  0  0
  136.2008  120.5339  140.7199 C   0  0  0  0  0  0  0  0  0  0  0  0
  136.4529  119.5993  139.5840 C   0  0  0  0  0  0  0  0  0  0  0  0
  135.5121  119.0669  138.8103 N   0  0  0  0  0  0  0  0  0  0  0  0
  136.0843  118.2660  137.8780 C   0  0  0  0  0  0  0  0  0  0  0  0
  135.3934  117.5303  136.8382 C   0  0  0  0  0  0  0  0  0  0  0  0
  135.6328  117.5503  135.6031 C   0  0  0  0  0  0  0  0  0  0  0  0
  136.6726  118.3249  134.9569 C   0  0  0  0  0  0  0  0  0  0  0  0
  137.0736  117.9420  133.7738 C   0  0  0  0  0  0  0  0  0  0  0  0
  137.9264  118.3475  132.9541 C   0  0  0  0  0  0  0  0  0  0  0  0
  138.8040  118.7886  132.0939 N   0  0  0  0  0  0  0  0  0  0  0  0
  137.4273  118.3381  138.1293 N   0  0  0  0  0  0  0  0  0  0  0  0
  137.5805  119.1307  139.1335 O   0  0  0  0  0  0  0  0  0  0  0  0
  134.8043  121.0887  140.6857 C   0  0  0  0  0  0  0  0  0  0  0  0
  134.6354  122.1906  139.6848 C   0  0  0  0  0  0  0  0  0  0  0  0
  1  2  2  0
  2  3  1  0
  4  3  1  1
  4  5  1  0
  5  6  1  0
  6  7  1  6
  7  8  2  0
  8  9  1  0
  9 10  2  0
 10 11  1  0
 11 12  2  0
  2 13  1  0
 13 14  1  0
 14 15  1  0
 15 16  1  0
 16 17  1  0
 17 18  2  0
 18 19  1  0
 19 20  1  0
 20 21  2  3
 21 22  1  0
 22 23  2  3
 23 24  1  0
 24 25  3  0
 19 26  2  0
 26 27  1  0
 16 28  1  0
 28 29  1  0
  6  4  1  0
 12  7  1  0
 29 13  1  0
 27 17  1  0
M  END
>  <docking_score>  (1) 
-8.4800000000000004

$$$$

     RDKit          3D

 29 32  0  0  0  0  0  0  0  0999 V2000
  135.4661  120.4781  141.0548 O   0  0  0  0  0  0  0  0  0  0  0  0
  135.3676  121.1191  139.9540 C   0  0  0  0  0  0  0  0  0  0  0  0
  135.7101  120.5176  138.7190 N   0  0  0  0  0  0  0  0  0  0  0  0
  136.1890  119.1404  138.7177 C   0  0  2  0  0  0  0  0  0  0  0  0
  137.5150  118.8323  139.3916 C   0  0  0  0  0  0  0  0  0  0  0  0
  137.4915  118.9669  137.8929 C   0  0  1  0  0  0  0  0  0  0  0  0
  137.4966  117.7423  137.0741 C   0  0  0  0  0  0  0  0  0  0  0  0
  138.2145  116.6674  137.4215 C   0  0  0  0  0  0  0  0  0  0  0  0
  138.2930  115.4832  136.7616 C   0  0  0  0  0  0  0  0  0  0  0  0
  137.4984  115.4483  135.5732 C   0  0  0  0  0  0  0  0  0  0  0  0
  136.7502  116.5067  135.1703 C   0  0  0  0  0  0  0  0  0  0  0  0
  136.7168  117.6810  135.8903 C   0  0  0  0  0  0  0  0  0  0  0  0
  134.9011  122.4577  140.0274 N   0  0  0  0  0  0  0  0  0  0  0  0
  135.8745  123.5079  140.0330 C   0  0  0  0  0  0  0  0  0  0  0  0
  135.4034  124.8516  140.3890 C   0  0  0  0  0  0  0  0  0  0  0  0
  133.9464  125.1240  140.3128 C   0  0  0  0  0  0  0  0  0  0  0  0
  133.3812  125.4294  141.6598 C   0  0  0  0  0  0  0  0  0  0  0  0
  134.0770  125.8966  142.6916 N   0  0  0  0  0  0  0  0  0  0  0  0
  133.2581  126.0623  143.7594 C   0  0  0  0  0  0  0  0  0  0  0  0
  133.6375  126.5763  145.0600 C   0  0  0  0  0  0  0  0  0  0  0  0
  133.3912  127.7172  145.5299 C   0  0  0  0  0  0  0  0  0  0  0  0
  132.6586  128.7687  144.8543 C   0  0  0  0  0  0  0  0  0  0  0  0
  133.3381  129.7785  144.3792 C   0  0  0  0  0  0  0  0  0  0  0  0
  133.0491  130.8318  143.7705 C   0  0  0  0  0  0  0  0  0  0  0  0
  132.7424  131.9196  143.1168 N   0  0  0  0  0  0  0  0  0  0  0  0
  132.0241  125.6665  143.3208 N   0  0  0  0  0  0  0  0  0  0  0  0
  132.1585  125.3098  142.0899 O   0  0  0  0  0  0  0  0  0  0  0  0
  133.1570  124.0583  139.6056 C   0  0  0  0  0  0  0  0  0  0  0  0
  133.4660  122.6769  140.0963 C   0  0  0  0  0  0  0  0  0  0  0  0
  1  2  2  0
  2  3  1  0
  4  3  1  1
  4  5  1  0
  5  6  1  0
  6  7  1  6
  7  8  2  0
  8  9  1  0
  9 10  2  0
 10 11  1  0
 11 12  2  0
  2 13  1  0
 13 14  1  0
 14 15  1  0
 15 16  1  0
 16 17  1  0
 17 18  2  0
 18 19  1  0
 19 20  1  0
 20 21  2  3
 21 22  1  0
 22 23  2  3
 23 24  1  0
 24 25  3  0
 19 26  2  0
 26 27  1  0
 16 28  1  0
 28 29  1  0
  6  4  1  0
 12  7  1  0
 29 13  1  0
 27 17  1  0
M  END
>  <docking_score>  (2) 
-7.7720000000000002

$$$$

     RDKit          3D

 29 32  0  0  0  0  0  0  0  0999 V2000
  138.4802  117.6795  135.6093 O   0  0  0  0  0  0  0  0  0  0  0  0
  137.2609  117.9865  135.8360 C   0  0  0  0  0  0  0  0  0  0  0  0
  136.2978  117.9897  134.7983 N   0  0  0  0  0  0  0  0  0  0  0  0
  136.7200  117.6396  133.4474 C   0  0  2  0  0  0  0  0  0  0  0  0
  135.7548  117.8809  132.2995 C   0  0  0  0  0  0  0  0  0  0  0  0
  135.8790  116.4837  132.8446 C   0  0  1  0  0  0  0  0  0  0  0  0
  136.6921  115.5058  132.1012 C   0  0  0  0  0  0  0  0  0  0  0  0
  136.8721  115.6022  130.7783 C   0  0  0  0  0  0  0  0  0  0  0  0
  137.6034  114.7765  129.9862 C   0  0  0  0  0  0  0  0  0  0  0  0
  138.2211  113.7073  130.7074 C   0  0  0  0  0  0  0  0  0  0  0  0
  138.0747  113.5581  132.0485 C   0  0  0  0  0  0  0  0  0  0  0  0
  137.3163  114.4354  132.7925 C   0  0  0  0  0  0  0  0  0  0  0  0
  136.9188  118.3233  137.1717 N   0  0  0  0  0  0  0  0  0  0  0  0
  135.6461  117.8930  137.6670 C   0  0  0  0  0  0  0  0  0  0  0  0
  135.1906  118.4794  138.9332 C   0  0  0  0  0  0  0  0  0  0  0  0
  136.2007  119.1283  139.8059 C   0  0  0  0  0  0  0  0  0  0  0  0
  135.9358  120.5901  139.9468 C   0  0  0  0  0  0  0  0  0  0  0  0
  136.6675  121.4324  140.6694 N   0  0  0  0  0  0  0  0  0  0  0  0
  136.1508  122.6825  140.5790 C   0  0  0  0  0  0  0  0  0  0  0  0
  136.6815  123.8776  141.2034 C   0  0  0  0  0  0  0  0  0  0  0  0
  136.0303  124.8567  141.6512 C   0  0  0  0  0  0  0  0  0  0  0  0
  134.5877  124.9885  141.6381 C   0  0  0  0  0  0  0  0  0  0  0  0
  134.0769  126.0566  141.0855 C   0  0  0  0  0  0  0  0  0  0  0  0
  132.9189  126.4943  140.9091 C   0  0  0  0  0  0  0  0  0  0  0  0
  131.7063  126.9352  140.7097 N   0  0  0  0  0  0  0  0  0  0  0  0
  135.0605  122.5539  139.7626 N   0  0  0  0  0  0  0  0  0  0  0  0
  134.9871  121.3126  139.4251 O   0  0  0  0  0  0  0  0  0  0  0  0
  137.6242  118.8556  139.4080 C   0  0  0  0  0  0  0  0  0  0  0  0
  137.8801  119.0866  137.9501 C   0  0  0  0  0  0  0  0  0  0  0  0
  1  2  2  0
  2  3  1  0
  4  3  1  1
  4  5  1  0
  5  6  1  0
  6  7  1  6
  7  8  2  0
  8  9  1  0
  9 10  2  0
 10 11  1  0
 11 12  2  0
  2 13  1  0
 13 14  1  0
 14 15  1  0
 15 16  1  0
 16 17  1  0
 17 18  2  0
 18 19  1  0
 19 20  1  0
 20 21  2  3
 21 22  1  0
 22 23  2  3
 23 24  1  0
 24 25  3  0
 19 26  2  0
 26 27  1  0
 16 28  1  0
 28 29  1  0
  6  4  1  0
 12  7  1  0
 29 13  1  0
 27 17  1  0
M  END
>  <docking_score>  (3) 
-7.7199999999999998

$$$$
