
     RDKit          3D

 11 11  0  0  0  0  0  0  0  0999 V2000
  138.0311  117.8363  136.2652 O   0  0  0  0  0  0  0  0  0  0  0  0
  137.6752  117.1918  137.2856 C   0  0  0  0  0  0  0  0  0  0  0  0
  137.1819  117.9568  138.3814 N   0  0  0  0  0  0  0  0  0  0  0  0
  135.8000  117.8822  138.7020 C   0  0  0  0  0  0  0  0  0  0  0  0
  134.9920  118.7424  139.3219 C   0  0  0  0  0  0  0  0  0  0  0  0
  135.4213  120.0440  139.8342 C   0  0  0  0  0  0  0  0  0  0  0  0
  134.4909  120.8191  140.3835 C   0  0  0  0  0  0  0  0  0  0  0  0
  133.1992  120.3906  140.4516 F   0  0  0  0  0  0  0  0  0  0  0  0
  138.1750  118.7346  139.0488 C   0  0  0  0  0  0  0  0  0  0  0  0
  137.7954  120.0381  139.5088 C   0  0  0  0  0  0  0  0  0  0  0  0
  136.7084  120.6485  139.8482 N   0  0  0  0  0  0  0  0  0  0  0  0
  1  2  2  0
  2  3  1  0
  3  4  1  0
  4  5  2  0
  5  6  1  0
  6  7  2  3
  7  8  1  0
  3  9  1  0
  9 10  1  0
 10 11  2  0
 11  6  1  0
M  END
>  <docking_score>  (1) 
-4.5060000000000002

$$$$

     RDKit          3D

 11 11  0  0  0  0  0  0  0  0999 V2000
  119.2576  123.9934  137.9415 O   0  0  0  0  0  0  0  0  0  0  0  0
  118.9493  124.9082  138.7485 C   0  0  0  0  0  0  0  0  0  0  0  0
  119.7898  125.0611  139.8885 N   0  0  0  0  0  0  0  0  0  0  0  0
  120.6378  126.1981  139.9668 C   0  0  0  0  0  0  0  0  0  0  0  0
  121.7835  126.3991  140.6179 C   0  0  0  0  0  0  0  0  0  0  0  0
  122.4395  125.3898  141.4498 C   0  0  0  0  0  0  0  0  0  0  0  0
  123.6072  125.7161  141.9958 C   0  0  0  0  0  0  0  0  0  0  0  0
  124.1450  126.9478  141.7710 F   0  0  0  0  0  0  0  0  0  0  0  0
  119.6723  124.0126  140.8494 C   0  0  0  0  0  0  0  0  0  0  0  0
  120.8711  123.5789  141.5050 C   0  0  0  0  0  0  0  0  0  0  0  0
  122.0315  124.0706  141.7897 N   0  0  0  0  0  0  0  0  0  0  0  0
  1  2  2  0
  2  3  1  0
  3  4  1  0
  4  5  2  0
  5  6  1  0
  6  7  2  3
  7  8  1  0
  3  9  1  0
  9 10  1  0
 10 11  2  0
 11  6  1  0
M  END
>  <docking_score>  (2) 
-3.52

$$$$

     RDKit          3D

 11 11  0  0  0  0  0  0  0  0999 V2000
  146.8071  118.9459  164.6812 O   0  0  0  0  0  0  0  0  0  0  0  0
  146.5963  117.7242  164.8961 C   0  0  0  0  0  0  0  0  0  0  0  0
  145.7327  117.4093  165.9844 N   0  0  0  0  0  0  0  0  0  0  0  0
  145.2100  116.0921  166.0852 C   0  0  0  0  0  0  0  0  0  0  0  0
  144.1068  115.6247  166.6695 C   0  0  0  0  0  0  0  0  0  0  0  0
  143.1409  116.4620  167.3814 C   0  0  0  0  0  0  0  0  0  0  0  0
  142.0583  115.8629  167.8686 C   0  0  0  0  0  0  0  0  0  0  0  0
  141.8843  114.5225  167.6955 F   0  0  0  0  0  0  0  0  0  0  0  0
  145.4888  118.4977  166.8745 C   0  0  0  0  0  0  0  0  0  0  0  0
  144.1674  118.6270  167.4147 C   0  0  0  0  0  0  0  0  0  0  0  0
  143.1574  117.8576  167.6541 N   0  0  0  0  0  0  0  0  0  0  0  0
  1  2  2  0
  2  3  1  0
  3  4  1  0
  4  5  2  0
  5  6  1  0
  6  7  2  3
  7  8  1  0
  3  9  1  0
  9 10  1  0
 10 11  2  0
 11  6  1  0
M  END
>  <docking_score>  (3) 
-1.865

$$$$
