
     RDKit          3D

 20 22  0  0  0  0  0  0  0  0999 V2000
  139.2554  113.4103  137.0150 O   0  0  0  0  0  0  0  0  0  0  0  0
  138.8383  114.4638  136.4360 C   0  0  0  0  0  0  0  0  0  0  0  0
  138.7464  115.5592  137.3419 N   0  0  0  0  0  0  0  0  0  0  0  0
  138.0453  116.8191  137.2844 C   0  0  0  0  0  0  0  0  0  0  0  0
  138.2065  117.3885  138.5452 C   0  0  0  0  0  0  0  0  0  0  0  0
  137.6404  118.6166  138.8049 C   0  0  0  0  0  0  0  0  0  0  0  0
  137.8030  119.3993  140.3793 Cl  0  0  0  0  0  0  0  0  0  0  0  0
  136.9310  119.2371  137.7964 C   0  0  0  0  0  0  0  0  0  0  0  0
  136.7753  118.6712  136.5556 C   0  0  0  0  0  0  0  0  0  0  0  0
  136.0816  119.2716  135.5603 F   0  0  0  0  0  0  0  0  0  0  0  0
  137.3342  117.4476  136.2829 C   0  0  0  0  0  0  0  0  0  0  0  0
  138.5667  114.3037  135.0466 N   0  0  0  0  0  0  0  0  0  0  0  0
  138.3614  115.2290  133.9872 C   0  0  1  0  0  0  0  0  0  0  0  0
  138.8976  114.9078  132.6888 C   0  0  0  0  0  0  0  0  0  0  0  0
  137.9362  115.0746  131.5866 C   0  0  0  0  0  0  0  0  0  0  0  0
  138.2714  117.3534  132.6182 S   0  0  2  0  0  0  0  0  0  0  0  0
  137.0971  115.9528  133.9755 C   0  0  2  0  0  0  0  0  0  0  0  0
  137.0019  117.1112  134.9005 C   0  0  0  0  0  0  0  0  0  0  0  0
  136.4806  118.1119  134.3401 O   0  0  0  0  0  0  0  0  0  0  0  0
  136.9564  117.9037  131.7813 O   0  0  0  0  0  1  0  0  0  0  0  0
  1  2  2  0
  2  3  1  0
  3  4  1  0
  4  5  2  0
  5  6  1  0
  6  7  1  0
  6  8  2  0
  8  9  1  0
  9 10  1  0
  9 11  2  0
  2 12  1  0
 12 13  1  0
 13 14  1  6
 14 15  1  0
 15 16  1  0
 16 17  1  0
 17 18  1  1
 18 19  2  0
 16 20  1  6
 11  4  1  0
 18 11  1  0
 17 13  1  0
M  CHG  1  20  -1
M  END
>  <docking_score>  (1) 
-7.0640000000000001

$$$$

     RDKit          3D

 20 22  0  0  0  0  0  0  0  0999 V2000
  142.4944  137.1087  138.5985 O   0  0  0  0  0  0  0  0  0  0  0  0
  142.0280  135.9335  138.7417 C   0  0  0  0  0  0  0  0  0  0  0  0
  141.6449  135.3651  137.4930 N   0  0  0  0  0  0  0  0  0  0  0  0
  140.7914  134.2548  137.1451 C   0  0  0  0  0  0  0  0  0  0  0  0
  140.6749  134.2999  135.7579 C   0  0  0  0  0  0  0  0  0  0  0  0
  139.9091  133.3518  135.1171 C   0  0  0  0  0  0  0  0  0  0  0  0
  139.7158  133.3464  133.3619 Cl  0  0  0  0  0  0  0  0  0  0  0  0
  139.2838  132.3885  135.8826 C   0  0  0  0  0  0  0  0  0  0  0  0
  139.4020  132.3487  137.2495 C   0  0  0  0  0  0  0  0  0  0  0  0
  138.7928  131.4083  138.0089 F   0  0  0  0  0  0  0  0  0  0  0  0
  140.1622  133.2875  137.9014 C   0  0  0  0  0  0  0  0  0  0  0  0
  141.9989  135.4718  140.0892 N   0  0  0  0  0  0  0  0  0  0  0  0
  141.8317  134.1845  140.6683 C   0  0  1  0  0  0  0  0  0  0  0  0
  142.6012  133.8607  141.8429 C   0  0  0  0  0  0  0  0  0  0  0  0
  141.8074  133.2751  142.9355 C   0  0  0  0  0  0  0  0  0  0  0  0
  141.6568  131.6815  140.9842 S   0  0  2  0  0  0  0  0  0  0  0  0
  140.4955  133.6058  140.6221 C   0  0  2  0  0  0  0  0  0  0  0  0
  140.0974  132.9898  139.3304 C   0  0  0  0  0  0  0  0  0  0  0  0
  139.5336  131.8761  139.5006 O   0  0  0  0  0  0  0  0  0  0  0  0
  140.4225  130.8922  141.7498 O   0  0  0  0  0  1  0  0  0  0  0  0
  1  2  2  0
  2  3  1  0
  3  4  1  0
  4  5  2  0
  5  6  1  0
  6  7  1  0
  6  8  2  0
  8  9  1  0
  9 10  1  0
  9 11  2  0
  2 12  1  0
 12 13  1  0
 13 14  1  1
 14 15  1  0
 15 16  1  0
 16 17  1  0
 17 18  1  6
 18 19  2  0
 16 20  1  1
 11  4  1  0
 18 11  1  0
 17 13  1  0
M  CHG  1  20  -1
M  END
>  <docking_score>  (2) 
-7.0490000000000004

$$$$

     RDKit          3D

 20 22  0  0  0  0  0  0  0  0999 V2000
  141.9943  133.5245  143.1109 O   0  0  0  0  0  0  0  0  0  0  0  0
  142.1689  133.9314  141.9179 C   0  0  0  0  0  0  0  0  0  0  0  0
  143.2530  134.8512  141.8304 N   0  0  0  0  0  0  0  0  0  0  0  0
  143.6357  135.8190  140.8308 C   0  0  0  0  0  0  0  0  0  0  0  0
  144.6898  136.5339  141.3943 C   0  0  0  0  0  0  0  0  0  0  0  0
  145.2791  137.5452  140.6690 C   0  0  0  0  0  0  0  0  0  0  0  0
  146.6194  138.4937  141.3184 Cl  0  0  0  0  0  0  0  0  0  0  0  0
  144.7963  137.8103  139.4033 C   0  0  0  0  0  0  0  0  0  0  0  0
  143.7570  137.1026  138.8529 C   0  0  0  0  0  0  0  0  0  0  0  0
  143.2766  137.3549  137.6129 F   0  0  0  0  0  0  0  0  0  0  0  0
  143.1604  136.0918  139.5646 C   0  0  0  0  0  0  0  0  0  0  0  0
  141.2580  133.3829  140.9696 N   0  0  0  0  0  0  0  0  0  0  0  0
  141.2518  133.3342  139.5490 C   0  0  1  0  0  0  0  0  0  0  0  0
  140.7583  132.1403  138.9105 C   0  0  0  0  0  0  0  0  0  0  0  0
  139.7843  132.3952  137.8365 C   0  0  0  0  0  0  0  0  0  0  0  0
  141.9576  133.4625  137.1239 S   0  0  2  0  0  0  0  0  0  0  0  0
  140.9687  134.5777  138.8447 C   0  0  2  0  0  0  0  0  0  0  0  0
  142.1009  135.5322  138.7285 C   0  0  0  0  0  0  0  0  0  0  0  0
  142.1874  136.0116  137.5667 O   0  0  0  0  0  0  0  0  0  0  0  0
  141.1478  134.2655  135.9274 O   0  0  0  0  0  1  0  0  0  0  0  0
  1  2  2  0
  2  3  1  0
  3  4  1  0
  4  5  2  0
  5  6  1  0
  6  7  1  0
  6  8  2  0
  8  9  1  0
  9 10  1  0
  9 11  2  0
  2 12  1  0
 12 13  1  0
 13 14  1  1
 14 15  1  0
 15 16  1  0
 16 17  1  0
 17 18  1  1
 18 19  2  0
 16 20  1  6
 11  4  1  0
 18 11  1  0
 17 13  1  0
M  CHG  1  20  -1
M  END
>  <docking_score>  (3) 
-6.9749999999999996

$$$$
