
     RDKit          3D

 27 30  0  0  0  0  0  0  0  0999 V2000
  135.8696  124.9873  140.1653 O   0  0  0  0  0  0  0  0  0  0  0  0
  134.8062  124.4604  139.8098 C   0  0  0  0  0  0  0  0  0  0  0  0
  134.7725  123.0439  139.6659 N   0  0  0  0  0  0  0  0  0  0  0  0
  135.9072  122.2086  139.9123 C   0  0  1  0  0  0  0  0  0  0  0  0
  136.3553  121.7718  141.2340 C   0  0  0  0  0  0  0  0  0  0  0  0
  135.5811  120.7872  140.4803 C   0  0  2  0  0  0  0  0  0  0  0  0
  136.1798  119.7409  139.6251 C   0  0  0  0  0  0  0  0  0  0  0  0
  135.3203  118.8265  139.0190 C   0  0  0  0  0  0  0  0  0  0  0  0
  135.7660  117.8161  138.2099 C   0  0  0  0  0  0  0  0  0  0  0  0
  137.1132  117.6693  137.9631 C   0  0  0  0  0  0  0  0  0  0  0  0
  137.9748  118.5692  138.5569 C   0  0  0  0  0  0  0  0  0  0  0  0
  137.5313  119.6005  139.3824 C   0  0  0  0  0  0  0  0  0  0  0  0
  133.6099  125.2083  139.5362 N   0  0  0  0  0  0  0  0  0  0  0  0
  133.6789  126.6448  139.6960 C   0  0  0  0  0  0  0  0  0  0  0  0
  133.9940  127.2296  138.3344 C   0  0  0  0  0  0  0  0  0  0  0  0
  132.8253  127.0275  137.4236 C   0  0  0  0  0  0  0  0  0  0  0  0
  132.4605  128.2542  136.6814 C   0  0  0  0  0  0  0  0  0  0  0  0
  131.8802  129.3198  137.2754 N   0  0  0  0  0  0  0  0  0  0  0  0
  131.6639  130.2873  136.3553 C   0  0  0  0  0  0  0  0  0  0  0  0
  131.0536  131.5676  136.6621 C   0  0  0  0  0  0  0  0  0  0  0  0
  129.7755  131.6433  137.1690 C   0  0  0  0  0  0  0  0  0  0  0  0
  129.1479  132.8253  137.4783 C   0  0  0  0  0  0  0  0  0  0  0  0
  129.8283  134.0297  137.2736 C   0  0  0  0  0  0  0  0  0  0  0  0
  131.1104  133.9142  136.7627 C   0  0  0  0  0  0  0  0  0  0  0  0
  131.6904  132.7382  136.4728 N   0  0  0  0  0  0  0  0  0  0  0  0
  132.1248  129.7762  135.2124 N   0  0  0  0  0  0  0  0  0  0  0  0
  132.5947  128.5693  135.4200 O   0  0  0  0  0  0  0  0  0  0  0  0
  1  2  2  0
  2  3  1  0
  4  3  1  1
  4  5  1  0
  5  6  1  0
  6  7  1  6
  7  8  2  0
  8  9  1  0
  9 10  2  0
 10 11  1  0
 11 12  2  0
  2 13  1  0
 13 14  1  0
 14 15  1  0
 15 16  1  0
 16 17  1  0
 17 18  2  0
 18 19  1  0
 19 20  1  0
 20 21  2  0
 21 22  1  0
 22 23  2  0
 23 24  1  0
 24 25  2  0
 19 26  2  0
 26 27  1  0
  6  4  1  0
 12  7  1  0
 27 17  1  0
 25 20  1  0
M  END
>  <docking_score>  (1) 
-7.3010000000000002

$$$$

     RDKit          3D

 27 30  0  0  0  0  0  0  0  0999 V2000
  121.9977  125.0990  143.6446 O   0  0  0  0  0  0  0  0  0  0  0  0
  122.8417  125.3040  142.7612 C   0  0  0  0  0  0  0  0  0  0  0  0
  122.3812  125.6277  141.4530 N   0  0  0  0  0  0  0  0  0  0  0  0
  120.9942  125.7251  141.1172 C   0  0  1  0  0  0  0  0  0  0  0  0
  120.3778  126.8529  140.4196 C   0  0  0  0  0  0  0  0  0  0  0  0
  120.6720  125.6885  139.5862 C   0  0  2  0  0  0  0  0  0  0  0  0
  119.7003  124.6149  139.2897 C   0  0  0  0  0  0  0  0  0  0  0  0
  119.9032  123.3720  139.8865 C   0  0  0  0  0  0  0  0  0  0  0  0
  119.0680  122.3070  139.6802 C   0  0  0  0  0  0  0  0  0  0  0  0
  117.9721  122.4355  138.8556 C   0  0  0  0  0  0  0  0  0  0  0  0
  117.7597  123.6619  138.2593 C   0  0  0  0  0  0  0  0  0  0  0  0
  118.6041  124.7517  138.4621 C   0  0  0  0  0  0  0  0  0  0  0  0
  124.2581  125.2303  142.9931 N   0  0  0  0  0  0  0  0  0  0  0  0
  124.6907  124.9026  144.3346 C   0  0  0  0  0  0  0  0  0  0  0  0
  126.1114  124.3868  144.2307 C   0  0  0  0  0  0  0  0  0  0  0  0
  126.7375  124.9030  142.9745 C   0  0  0  0  0  0  0  0  0  0  0  0
  128.2128  124.9737  143.0587 C   0  0  0  0  0  0  0  0  0  0  0  0
  129.0172  124.6763  142.0149 N   0  0  0  0  0  0  0  0  0  0  0  0
  130.3097  124.8293  142.3831 C   0  0  0  0  0  0  0  0  0  0  0  0
  131.4329  124.5904  141.4958 C   0  0  0  0  0  0  0  0  0  0  0  0
  131.3338  123.7060  140.4450 C   0  0  0  0  0  0  0  0  0  0  0  0
  132.3619  123.4408  139.5736 C   0  0  0  0  0  0  0  0  0  0  0  0
  133.5856  124.0951  139.7471 C   0  0  0  0  0  0  0  0  0  0  0  0
  133.6478  124.9762  140.8139 C   0  0  0  0  0  0  0  0  0  0  0  0
  132.6189  125.2091  141.6448 N   0  0  0  0  0  0  0  0  0  0  0  0
  130.2543  125.2205  143.6573 N   0  0  0  0  0  0  0  0  0  0  0  0
  129.0041  125.3021  144.0457 O   0  0  0  0  0  0  0  0  0  0  0  0
  1  2  2  0
  2  3  1  0
  4  3  1  6
  4  5  1  0
  5  6  1  0
  6  7  1  1
  7  8  2  0
  8  9  1  0
  9 10  2  0
 10 11  1  0
 11 12  2  0
  2 13  1  0
 13 14  1  0
 14 15  1  0
 15 16  1  0
 16 17  1  0
 17 18  2  0
 18 19  1  0
 19 20  1  0
 20 21  2  0
 21 22  1  0
 22 23  2  0
 23 24  1  0
 24 25  2  0
 19 26  2  0
 26 27  1  0
  6  4  1  0
 12  7  1  0
 27 17  1  0
 25 20  1  0
M  END
>  <docking_score>  (2) 
-7.2380000000000004

$$$$

     RDKit          3D

 27 30  0  0  0  0  0  0  0  0999 V2000
  133.6175  125.5264  137.0444 O   0  0  0  0  0  0  0  0  0  0  0  0
  134.7057  126.0199  137.3716 C   0  0  0  0  0  0  0  0  0  0  0  0
  135.2280  125.7039  138.6583 N   0  0  0  0  0  0  0  0  0  0  0  0
  134.5537  124.8466  139.5837 C   0  0  1  0  0  0  0  0  0  0  0  0
  134.9651  124.6191  140.9684 C   0  0  0  0  0  0  0  0  0  0  0  0
  133.8699  125.5708  140.7908 C   0  0  2  0  0  0  0  0  0  0  0  0
  132.4384  125.2099  140.8644 C   0  0  0  0  0  0  0  0  0  0  0  0
  131.9069  124.9123  142.1179 C   0  0  0  0  0  0  0  0  0  0  0  0
  130.5959  124.5635  142.3018 C   0  0  0  0  0  0  0  0  0  0  0  0
  129.7395  124.4953  141.2250 C   0  0  0  0  0  0  0  0  0  0  0  0
  130.2537  124.7886  139.9783 C   0  0  0  0  0  0  0  0  0  0  0  0
  131.5865  125.1439  139.7804 C   0  0  0  0  0  0  0  0  0  0  0  0
  135.4627  126.8934  136.5176 N   0  0  0  0  0  0  0  0  0  0  0  0
  134.9042  127.1903  135.2160 C   0  0  0  0  0  0  0  0  0  0  0  0
  134.1564  128.5019  135.3411 C   0  0  0  0  0  0  0  0  0  0  0  0
  132.7345  128.3060  134.9214 C   0  0  0  0  0  0  0  0  0  0  0  0
  131.7687  128.7592  135.9463 C   0  0  0  0  0  0  0  0  0  0  0  0
  131.8285  128.3539  137.2337 N   0  0  0  0  0  0  0  0  0  0  0  0
  130.8240  128.9275  137.9346 C   0  0  0  0  0  0  0  0  0  0  0  0
  130.6008  128.7034  139.3510 C   0  0  0  0  0  0  0  0  0  0  0  0
  129.3540  128.3690  139.8305 C   0  0  0  0  0  0  0  0  0  0  0  0
  129.0841  128.1447  141.1585 C   0  0  0  0  0  0  0  0  0  0  0  0
  130.1200  128.2580  142.0910 C   0  0  0  0  0  0  0  0  0  0  0  0
  131.3589  128.5958  141.5721 C   0  0  0  0  0  0  0  0  0  0  0  0
  131.5833  128.8072  140.2650 N   0  0  0  0  0  0  0  0  0  0  0  0
  130.1728  129.6753  137.0422 N   0  0  0  0  0  0  0  0  0  0  0  0
  130.7438  129.5663  135.8663 O   0  0  0  0  0  0  0  0  0  0  0  0
  1  2  2  0
  2  3  1  0
  4  3  1  6
  4  5  1  0
  5  6  1  0
  6  7  1  1
  7  8  2  0
  8  9  1  0
  9 10  2  0
 10 11  1  0
 11 12  2  0
  2 13  1  0
 13 14  1  0
 14 15  1  0
 15 16  1  0
 16 17  1  0
 17 18  2  0
 18 19  1  0
 19 20  1  0
 20 21  2  0
 21 22  1  0
 22 23  2  0
 23 24  1  0
 24 25  2  0
 19 26  2  0
 26 27  1  0
  6  4  1  0
 12  7  1  0
 27 17  1  0
 25 20  1  0
M  END
>  <docking_score>  (3) 
-7.1109999999999998

$$$$
