
     RDKit          3D

 25 27  0  0  0  0  0  0  0  0999 V2000
  136.0555  117.1199  136.5763 O   0  0  0  0  0  0  0  0  0  0  0  0
  136.5712  118.0624  135.8759 C   0  0  0  0  0  0  0  0  0  0  0  0
  136.9781  119.2271  136.5741 N   0  0  0  0  0  0  0  0  0  0  0  0
  136.8512  119.4381  137.9563 C   0  0  0  0  0  0  0  0  0  0  0  0
  135.6683  119.8729  138.5446 C   0  0  0  0  0  0  0  0  0  0  0  0
  135.5312  120.0568  139.9004 C   0  0  0  0  0  0  0  0  0  0  0  0
  134.0701  120.6178  140.6585 Cl  0  0  0  0  0  0  0  0  0  0  0  0
  136.6225  119.7954  140.6866 C   0  0  0  0  0  0  0  0  0  0  0  0
  137.8181  119.3611  140.1584 C   0  0  0  0  0  0  0  0  0  0  0  0
  138.8725  119.0955  140.9798 F   0  0  0  0  0  0  0  0  0  0  0  0
  137.9103  119.1902  138.7927 C   0  0  0  0  0  0  0  0  0  0  0  0
  136.6961  117.8848  134.4987 N   0  0  0  0  0  0  0  0  0  0  0  0
  136.3248  116.7004  133.7382 C   0  0  1  0  0  0  0  0  0  0  0  0
  135.8770  116.9419  132.3519 C   0  0  0  0  0  0  0  0  0  0  0  0
  137.1305  116.9197  131.5268 C   0  0  2  0  0  0  0  0  0  0  0  0
  138.0330  115.8796  132.2061 C   0  0  0  0  0  0  0  0  0  0  0  0
  137.6015  115.9043  133.6163 C   0  0  2  0  0  0  0  0  0  0  0  0
  137.7392  114.7126  134.4343 C   0  0  0  0  0  0  0  0  0  0  0  0
  139.1050  114.3707  134.9574 C   0  0  1  0  0  0  0  0  0  0  0  0
  139.5222  115.1890  136.1590 C   0  0  0  0  0  0  0  0  0  0  0  0
  139.2641  114.3441  137.3346 C   0  0  0  0  0  0  0  0  0  0  0  0
  139.0261  113.1099  136.9658 C   0  0  0  0  0  0  0  0  0  0  0  0
  139.0938  112.9836  135.5058 C   0  0  2  0  0  0  0  0  0  0  0  0
  140.5142  112.0462  134.9925 Cl  0  0  0  0  0  0  0  0  0  0  0  0
  137.7213  118.1600  131.6038 F   0  0  0  0  0  0  0  0  0  0  0  0
  1  2  2  0
  2  3  1  0
  3  4  1  0
  4  5  2  0
  5  6  1  0
  6  7  1  0
  6  8  2  0
  8  9  1  0
  9 10  1  0
  9 11  2  0
  2 12  1  0
 13 12  1  6
 13 14  1  0
 14 15  1  0
 15 16  1  0
 16 17  1  0
 17 18  1  6
 19 18  1  1
 19 20  1  0
 20 21  1  0
 21 22  2  0
 22 23  1  0
 23 24  1  1
 15 25  1  1
 11  4  1  0
 17 13  1  0
 23 19  1  0
M  END
>  <docking_score>  (1) 
-7.5670000000000002

$$$$

     RDKit          3D

 25 27  0  0  0  0  0  0  0  0999 V2000
  135.6541  123.4323  141.8745 O   0  0  0  0  0  0  0  0  0  0  0  0
  135.9309  123.9359  140.7280 C   0  0  0  0  0  0  0  0  0  0  0  0
  136.3814  123.0375  139.7281 N   0  0  0  0  0  0  0  0  0  0  0  0
  136.5616  121.6549  139.8925 C   0  0  0  0  0  0  0  0  0  0  0  0
  135.6914  120.7141  139.3520 C   0  0  0  0  0  0  0  0  0  0  0  0
  135.8773  119.3585  139.4887 C   0  0  0  0  0  0  0  0  0  0  0  0
  134.7944  118.1625  138.8396 Cl  0  0  0  0  0  0  0  0  0  0  0  0
  136.9745  118.9396  140.1943 C   0  0  0  0  0  0  0  0  0  0  0  0
  137.8700  119.8264  140.7498 C   0  0  0  0  0  0  0  0  0  0  0  0
  138.9581  119.3651  141.4282 F   0  0  0  0  0  0  0  0  0  0  0  0
  137.6441  121.1775  140.5875 C   0  0  0  0  0  0  0  0  0  0  0  0
  135.7744  125.3087  140.5416 N   0  0  0  0  0  0  0  0  0  0  0  0
  135.2868  126.2684  141.5215 C   0  0  1  0  0  0  0  0  0  0  0  0
  135.8703  127.6225  141.4393 C   0  0  0  0  0  0  0  0  0  0  0  0
  134.9984  128.3657  140.4698 C   0  0  2  0  0  0  0  0  0  0  0  0
  133.5861  127.8089  140.7006 C   0  0  0  0  0  0  0  0  0  0  0  0
  133.8225  126.4405  141.1976 C   0  0  2  0  0  0  0  0  0  0  0  0
  132.8539  125.8159  142.0808 C   0  0  0  0  0  0  0  0  0  0  0  0
  132.1336  124.5943  141.5858 C   0  0  1  0  0  0  0  0  0  0  0  0
  130.6315  124.6617  141.7497 C   0  0  0  0  0  0  0  0  0  0  0  0
  130.0977  125.0568  140.4376 C   0  0  0  0  0  0  0  0  0  0  0  0
  131.0267  124.9597  139.5193 C   0  0  0  0  0  0  0  0  0  0  0  0
  132.2877  124.4926  140.1058 C   0  0  2  0  0  0  0  0  0  0  0  0
  132.6834  122.8404  139.5829 Cl  0  0  0  0  0  0  0  0  0  0  0  0
  135.4102  128.0577  139.1935 F   0  0  0  0  0  0  0  0  0  0  0  0
  1  2  2  0
  2  3  1  0
  3  4  1  0
  4  5  2  0
  5  6  1  0
  6  7  1  0
  6  8  2  0
  8  9  1  0
  9 10  1  0
  9 11  2  0
  2 12  1  0
 13 12  1  6
 13 14  1  0
 14 15  1  0
 15 16  1  0
 16 17  1  0
 17 18  1  1
 19 18  1  6
 19 20  1  0
 20 21  1  0
 21 22  2  0
 22 23  1  0
 23 24  1  1
 15 25  1  6
 11  4  1  0
 17 13  1  0
 23 19  1  0
M  END
>  <docking_score>  (2) 
-7.3109999999999999

$$$$

     RDKit          3D

 25 27  0  0  0  0  0  0  0  0999 V2000
  130.0325  138.2769  141.5215 O   0  0  0  0  0  0  0  0  0  0  0  0
  129.4332  138.0032  142.6219 C   0  0  0  0  0  0  0  0  0  0  0  0
  128.6355  139.0301  143.1867 N   0  0  0  0  0  0  0  0  0  0  0  0
  128.4601  140.3165  142.6524 C   0  0  0  0  0  0  0  0  0  0  0  0
  129.4207  141.3156  142.7679 C   0  0  0  0  0  0  0  0  0  0  0  0
  129.2646  142.5692  142.2247 C   0  0  0  0  0  0  0  0  0  0  0  0
  130.4413  143.8412  142.3713 Cl  0  0  0  0  0  0  0  0  0  0  0  0
  128.1021  142.8226  141.5454 C   0  0  0  0  0  0  0  0  0  0  0  0
  127.1175  141.8707  141.3985 C   0  0  0  0  0  0  0  0  0  0  0  0
  125.9846  142.1606  140.6989 F   0  0  0  0  0  0  0  0  0  0  0  0
  127.3168  140.6265  141.9598 C   0  0  0  0  0  0  0  0  0  0  0  0
  129.6015  136.7376  143.1819 N   0  0  0  0  0  0  0  0  0  0  0  0
  130.3811  135.6396  142.6290 C   0  0  1  0  0  0  0  0  0  0  0  0
  130.9705  134.7109  143.6143 C   0  0  0  0  0  0  0  0  0  0  0  0
  129.9148  133.6706  143.8510 C   0  0  2  0  0  0  0  0  0  0  0  0
  129.2106  133.5062  142.4965 C   0  0  0  0  0  0  0  0  0  0  0  0
  129.3874  134.8175  141.8447 C   0  0  2  0  0  0  0  0  0  0  0  0
  129.4283  134.9037  140.3959 C   0  0  0  0  0  0  0  0  0  0  0  0
  129.3104  133.6290  139.6102 C   0  0  1  0  0  0  0  0  0  0  0  0
  128.0445  133.5321  138.7881 C   0  0  0  0  0  0  0  0  0  0  0  0
  128.4210  133.9094  137.4176 C   0  0  0  0  0  0  0  0  0  0  0  0
  129.7249  133.9398  137.2948 C   0  0  0  0  0  0  0  0  0  0  0  0
  130.3727  133.5905  138.5639 C   0  0  2  0  0  0  0  0  0  0  0  0
  131.1748  132.0065  138.4780 Cl  0  0  0  0  0  0  0  0  0  0  0  0
  129.0223  134.1624  144.7756 F   0  0  0  0  0  0  0  0  0  0  0  0
  1  2  2  0
  2  3  1  0
  3  4  1  0
  4  5  2  0
  5  6  1  0
  6  7  1  0
  6  8  2  0
  8  9  1  0
  9 10  1  0
  9 11  2  0
  2 12  1  0
 13 12  1  1
 13 14  1  0
 14 15  1  0
 15 16  1  0
 16 17  1  0
 17 18  1  6
 19 18  1  6
 19 20  1  0
 20 21  1  0
 21 22  2  0
 22 23  1  0
 23 24  1  6
 15 25  1  1
 11  4  1  0
 17 13  1  0
 23 19  1  0
M  END
>  <docking_score>  (3) 
-6.8490000000000002

$$$$
