
     RDKit          3D

 12 11  0  0  0  0  0  0  0  0999 V2000
  137.3605  121.3793  140.8814 N   0  0  0  0  0  0  0  0  0  0  0  0
  137.7128  120.4553  140.2792 C   0  0  0  0  0  0  0  0  0  0  0  0
  138.1702  119.2973  139.5443 C   0  0  0  0  0  0  0  0  0  0  0  0
  137.5313  118.9878  138.4417 C   0  0  0  0  0  0  0  0  0  0  0  0
  137.9296  117.8524  137.6617 C   0  0  0  0  0  0  0  0  0  0  0  0
  137.9177  117.9517  136.3449 C   0  0  0  0  0  0  0  0  0  0  0  0
  138.3269  116.7851  135.5626 C   0  0  0  0  0  0  0  0  0  0  0  0
  138.7541  116.9198  134.3129 C   0  0  0  0  0  0  0  0  0  0  0  0
  139.1307  115.7305  133.6296 N   0  0  0  0  0  0  0  0  0  0  0  0
  140.4899  115.2117  133.7496 C   0  0  0  0  0  0  0  0  0  0  0  0
  138.8440  118.2398  133.6366 C   0  0  0  0  0  0  0  0  0  0  0  0
  138.9610  118.0388  132.2726 F   0  0  0  0  0  0  0  0  0  0  0  0
  1  2  3  0
  2  3  1  0
  3  4  2  3
  4  5  1  0
  5  6  2  3
  6  7  1  0
  7  8  2  3
  8  9  1  0
  9 10  1  0
  8 11  1  0
 11 12  1  0
M  END
>  <docking_score>  (1) 
-4.952

$$$$

     RDKit          3D

 12 11  0  0  0  0  0  0  0  0999 V2000
  137.4814  121.1681  140.7424 N   0  0  0  0  0  0  0  0  0  0  0  0
  137.2169  120.2895  140.0363 C   0  0  0  0  0  0  0  0  0  0  0  0
  136.8934  119.1764  139.1722 C   0  0  0  0  0  0  0  0  0  0  0  0
  136.4111  119.4514  137.9841 C   0  0  0  0  0  0  0  0  0  0  0  0
  136.0678  118.3977  137.0742 C   0  0  0  0  0  0  0  0  0  0  0  0
  136.4250  118.5117  135.8079 C   0  0  0  0  0  0  0  0  0  0  0  0
  136.0679  117.4286  134.8916 C   0  0  0  0  0  0  0  0  0  0  0  0
  136.3716  117.5013  133.6013 C   0  0  0  0  0  0  0  0  0  0  0  0
  135.9851  116.4016  132.7860 N   0  0  0  0  0  0  0  0  0  0  0  0
  135.3174  115.2459  133.3772 C   0  0  0  0  0  0  0  0  0  0  0  0
  137.0816  118.6656  133.0113 C   0  0  0  0  0  0  0  0  0  0  0  0
  136.7236  118.7827  131.6799 F   0  0  0  0  0  0  0  0  0  0  0  0
  1  2  3  0
  2  3  1  0
  3  4  2  3
  4  5  1  0
  5  6  2  3
  6  7  1  0
  7  8  2  3
  8  9  1  0
  9 10  1  0
  8 11  1  0
 11 12  1  0
M  END
>  <docking_score>  (2) 
-4.9500000000000002

$$$$

     RDKit          3D

 12 11  0  0  0  0  0  0  0  0999 V2000
  136.1034  123.7692  141.4864 N   0  0  0  0  0  0  0  0  0  0  0  0
  136.5370  122.7664  141.1032 C   0  0  0  0  0  0  0  0  0  0  0  0
  137.1007  121.5206  140.6336 C   0  0  0  0  0  0  0  0  0  0  0  0
  136.2919  120.6732  140.0440 C   0  0  0  0  0  0  0  0  0  0  0  0
  136.7814  119.4181  139.5532 C   0  0  0  0  0  0  0  0  0  0  0  0
  137.3360  119.3781  138.3553 C   0  0  0  0  0  0  0  0  0  0  0  0
  137.8309  118.0905  137.8682 C   0  0  0  0  0  0  0  0  0  0  0  0
  137.2074  117.4491  136.8873 C   0  0  0  0  0  0  0  0  0  0  0  0
  137.7601  116.2036  136.4791 N   0  0  0  0  0  0  0  0  0  0  0  0
  138.7221  115.5107  137.3309 C   0  0  0  0  0  0  0  0  0  0  0  0
  135.9876  117.9854  136.2297 C   0  0  0  0  0  0  0  0  0  0  0  0
  134.8924  117.7266  137.0348 F   0  0  0  0  0  0  0  0  0  0  0  0
  1  2  3  0
  2  3  1  0
  3  4  2  3
  4  5  1  0
  5  6  2  3
  6  7  1  0
  7  8  2  3
  8  9  1  0
  9 10  1  0
  8 11  1  0
 11 12  1  0
M  END
>  <docking_score>  (3) 
-4.7939999999999996

$$$$
