
     RDKit          3D

 30 34  0  0  0  0  0  0  0  0999 V2000
  133.5242  123.9584  139.1540 O   0  0  0  0  0  0  0  0  0  0  0  0
  134.7634  123.7803  139.0496 C   0  0  0  0  0  0  0  0  0  0  0  0
  135.3711  122.6170  139.6106 N   0  0  0  0  0  0  0  0  0  0  0  0
  134.4914  121.6902  140.2903 C   0  0  2  0  0  0  0  0  0  0  0  0
  135.0553  120.9128  141.4744 C   0  0  0  0  0  0  0  0  0  0  0  0
  134.7279  120.2451  140.2033 C   0  0  2  0  0  0  0  0  0  0  0  0
  135.8548  119.6623  139.4421 C   0  0  0  0  0  0  0  0  0  0  0  0
  137.1431  119.8876  139.8156 C   0  0  0  0  0  0  0  0  0  0  0  0
  138.2305  119.3645  139.1348 C   0  0  0  0  0  0  0  0  0  0  0  0
  137.9774  118.5751  138.0208 C   0  0  0  0  0  0  0  0  0  0  0  0
  136.6754  118.3428  137.6367 C   0  0  0  0  0  0  0  0  0  0  0  0
  135.6075  118.8727  138.3280 C   0  0  0  0  0  0  0  0  0  0  0  0
  135.4932  124.7860  138.3581 N   0  0  0  0  0  0  0  0  0  0  0  0
  134.8851  125.9511  137.8013 C   0  0  2  0  0  0  0  0  0  0  0  0
  133.7827  125.6780  136.8222 C   0  0  0  0  0  0  0  0  0  0  0  0
  133.6382  126.7973  135.8334 C   0  0  1  0  0  0  0  0  0  0  0  0
  133.2694  128.0761  136.4945 C   0  0  0  0  0  0  0  0  0  0  0  0
  133.4346  129.2720  135.9011 N   0  0  0  0  0  0  0  0  0  0  0  0
  133.0167  130.2531  136.7263 C   0  0  0  0  0  0  0  0  0  0  0  0
  133.0394  131.6941  136.4343 C   0  0  0  0  0  0  0  0  0  0  0  0
  134.1386  132.4333  136.7924 C   0  0  0  0  0  0  0  0  0  0  0  0
  134.1561  133.7726  136.5179 C   0  0  0  0  0  0  0  0  0  0  0  0
  133.0940  134.3743  135.8935 C   0  0  0  0  0  0  0  0  0  0  0  0
  132.0055  133.6111  135.5451 C   0  0  0  0  0  0  0  0  0  0  0  0
  132.0128  132.2932  135.8271 N   0  0  0  0  0  0  0  0  0  0  0  0
  132.5949  129.6240  137.8326 N   0  0  0  0  0  0  0  0  0  0  0  0
  132.7557  128.3229  137.6698 O   0  0  0  0  0  0  0  0  0  0  0  0
  134.9753  126.9350  135.1176 C   0  0  0  0  0  0  0  0  0  0  0  0
  135.9637  127.4297  136.1254 C   0  0  0  0  0  0  0  0  0  0  0  0
  135.8709  126.9368  137.3511 C   0  0  0  0  0  0  0  0  0  0  0  0
  1  2  2  0
  2  3  1  0
  4  3  1  6
  4  5  1  0
  5  6  1  0
  6  7  1  6
  7  8  2  0
  8  9  1  0
  9 10  2  0
 10 11  1  0
 11 12  2  0
  2 13  1  0
 14 13  1  6
 14 15  1  0
 15 16  1  0
 16 17  1  1
 17 18  2  0
 18 19  1  0
 19 20  1  0
 20 21  2  0
 21 22  1  0
 22 23  2  0
 23 24  1  0
 24 25  2  0
 19 26  2  0
 26 27  1  0
 16 28  1  0
 28 29  1  0
 29 30  2  0
  6  4  1  0
 12  7  1  0
 30 14  1  0
 27 17  1  0
 25 20  1  0
M  END
>  <docking_score>  (1) 
-9.0570000000000004

$$$$

     RDKit          3D

 30 34  0  0  0  0  0  0  0  0999 V2000
  135.6627  124.7233  139.9884 O   0  0  0  0  0  0  0  0  0  0  0  0
  135.5148  123.9415  139.0163 C   0  0  0  0  0  0  0  0  0  0  0  0
  135.6326  122.5315  139.2048 N   0  0  0  0  0  0  0  0  0  0  0  0
  135.9295  122.0799  140.5475 C   0  0  2  0  0  0  0  0  0  0  0  0
  137.3759  121.7262  140.8752 C   0  0  0  0  0  0  0  0  0  0  0  0
  136.3327  120.6904  140.7894 C   0  0  2  0  0  0  0  0  0  0  0  0
  136.4644  119.6940  139.7037 C   0  0  0  0  0  0  0  0  0  0  0  0
  137.6825  119.3766  139.1885 C   0  0  0  0  0  0  0  0  0  0  0  0
  137.8559  118.4512  138.1720 C   0  0  0  0  0  0  0  0  0  0  0  0
  136.7238  117.8268  137.6656 C   0  0  0  0  0  0  0  0  0  0  0  0
  135.4871  118.1433  138.1824 C   0  0  0  0  0  0  0  0  0  0  0  0
  135.3362  119.0670  139.1940 C   0  0  0  0  0  0  0  0  0  0  0  0
  135.2333  124.5399  137.7574 N   0  0  0  0  0  0  0  0  0  0  0  0
  135.1202  125.9502  137.5690 C   0  0  2  0  0  0  0  0  0  0  0  0
  133.7888  126.5297  137.9433 C   0  0  0  0  0  0  0  0  0  0  0  0
  133.4974  127.7800  137.1665 C   0  0  1  0  0  0  0  0  0  0  0  0
  134.4868  128.8518  137.4507 C   0  0  0  0  0  0  0  0  0  0  0  0
  135.1059  128.9692  138.6392 N   0  0  0  0  0  0  0  0  0  0  0  0
  135.9462  130.0235  138.6145 C   0  0  0  0  0  0  0  0  0  0  0  0
  136.7977  130.4743  139.7253 C   0  0  0  0  0  0  0  0  0  0  0  0
  138.0681  130.9188  139.4583 C   0  0  0  0  0  0  0  0  0  0  0  0
  138.8561  131.3383  140.4938 C   0  0  0  0  0  0  0  0  0  0  0  0
  138.3891  131.3184  141.7829 C   0  0  0  0  0  0  0  0  0  0  0  0
  137.1128  130.8690  142.0229 C   0  0  0  0  0  0  0  0  0  0  0  0
  136.3565  130.4605  140.9849 N   0  0  0  0  0  0  0  0  0  0  0  0
  135.8216  130.5416  137.3841 N   0  0  0  0  0  0  0  0  0  0  0  0
  134.9436  129.8235  136.7069 O   0  0  0  0  0  0  0  0  0  0  0  0
  133.5285  127.4052  135.6908 C   0  0  0  0  0  0  0  0  0  0  0  0
  134.9444  127.0587  135.3557 C   0  0  0  0  0  0  0  0  0  0  0  0
  135.6302  126.3842  136.2661 C   0  0  0  0  0  0  0  0  0  0  0  0
  1  2  2  0
  2  3  1  0
  4  3  1  6
  4  5  1  0
  5  6  1  0
  6  7  1  6
  7  8  2  0
  8  9  1  0
  9 10  2  0
 10 11  1  0
 11 12  2  0
  2 13  1  0
 14 13  1  6
 14 15  1  0
 15 16  1  0
 16 17  1  6
 17 18  2  0
 18 19  1  0
 19 20  1  0
 20 21  2  0
 21 22  1  0
 22 23  2  0
 23 24  1  0
 24 25  2  0
 19 26  2  0
 26 27  1  0
 16 28  1  0
 28 29  1  0
 29 30  2  0
  6  4  1  0
 12  7  1  0
 30 14  1  0
 27 17  1  0
 25 20  1  0
M  END
>  <docking_score>  (2) 
-8.9580000000000002

$$$$

     RDKit          3D

 30 34  0  0  0  0  0  0  0  0999 V2000
  131.1281  136.6072  141.6037 O   0  0  0  0  0  0  0  0  0  0  0  0
  129.9108  136.5911  141.9137 C   0  0  0  0  0  0  0  0  0  0  0  0
  129.4432  137.3543  143.0256 N   0  0  0  0  0  0  0  0  0  0  0  0
  130.4360  138.1181  143.7506 C   0  0  2  0  0  0  0  0  0  0  0  0
  130.5446  137.8963  145.2551 C   0  0  0  0  0  0  0  0  0  0  0  0
  130.0229  139.1569  144.7005 C   0  0  2  0  0  0  0  0  0  0  0  0
  128.6039  139.4736  144.9741 C   0  0  0  0  0  0  0  0  0  0  0  0
  127.9065  138.7977  145.9265 C   0  0  0  0  0  0  0  0  0  0  0  0
  126.5772  139.0579  146.2178 C   0  0  0  0  0  0  0  0  0  0  0  0
  125.9404  140.0582  145.4954 C   0  0  0  0  0  0  0  0  0  0  0  0
  126.6403  140.7466  144.5294 C   0  0  0  0  0  0  0  0  0  0  0  0
  127.9627  140.4723  144.2550 C   0  0  0  0  0  0  0  0  0  0  0  0
  129.0609  135.7852  141.1072 N   0  0  0  0  0  0  0  0  0  0  0  0
  129.5303  135.0189  139.9983 C   0  0  2  0  0  0  0  0  0  0  0  0
  129.3272  135.6619  138.6589 C   0  0  0  0  0  0  0  0  0  0  0  0
  129.2171  134.6359  137.5696 C   0  0  1  0  0  0  0  0  0  0  0  0
  130.4610  133.8338  137.4364 C   0  0  0  0  0  0  0  0  0  0  0  0
  130.4980  132.6577  136.7845 N   0  0  0  0  0  0  0  0  0  0  0  0
  131.7485  132.1548  136.8200 C   0  0  0  0  0  0  0  0  0  0  0  0
  132.1854  130.8855  136.2197 C   0  0  0  0  0  0  0  0  0  0  0  0
  131.3023  130.1676  135.4532 C   0  0  0  0  0  0  0  0  0  0  0  0
  131.7130  128.9886  134.8958 C   0  0  0  0  0  0  0  0  0  0  0  0
  132.9879  128.5251  135.0956 C   0  0  0  0  0  0  0  0  0  0  0  0
  133.8526  129.2637  135.8672 C   0  0  0  0  0  0  0  0  0  0  0  0
  133.4232  130.4221  136.4057 N   0  0  0  0  0  0  0  0  0  0  0  0
  132.4676  133.0530  137.5083 N   0  0  0  0  0  0  0  0  0  0  0  0
  131.6758  134.0481  137.8658 O   0  0  0  0  0  0  0  0  0  0  0  0
  128.0396  133.7366  137.9217 C   0  0  0  0  0  0  0  0  0  0  0  0
  128.4256  132.9671  139.1449 C   0  0  0  0  0  0  0  0  0  0  0  0
  129.1152  133.6159  140.0709 C   0  0  0  0  0  0  0  0  0  0  0  0
  1  2  2  0
  2  3  1  0
  4  3  1  1
  4  5  1  0
  5  6  1  0
  6  7  1  1
  7  8  2  0
  8  9  1  0
  9 10  2  0
 10 11  1  0
 11 12  2  0
  2 13  1  0
 14 13  1  1
 14 15  1  0
 15 16  1  0
 16 17  1  1
 17 18  2  0
 18 19  1  0
 19 20  1  0
 20 21  2  0
 21 22  1  0
 22 23  2  0
 23 24  1  0
 24 25  2  0
 19 26  2  0
 26 27  1  0
 16 28  1  0
 28 29  1  0
 29 30  2  0
  6  4  1  0
 12  7  1  0
 30 14  1  0
 27 17  1  0
 25 20  1  0
M  END
>  <docking_score>  (3) 
-8.625

$$$$
