
     RDKit          3D

 21 21  0  0  0  0  0  0  0  0999 V2000
  134.9217  126.6480  135.5880 C   0  0  0  0  0  0  0  0  0  0  0  0
  133.7874  126.0300  136.4034 C   0  0  0  0  0  0  0  0  0  0  0  0
  133.3195  127.0588  137.4161 C   0  0  2  0  0  0  0  0  0  0  0  0
  134.4335  128.0222  137.7354 C   0  0  0  0  0  0  0  0  0  0  0  0
  132.9060  126.3677  138.6893 C   0  0  2  0  0  0  0  0  0  0  0  0
  133.3969  124.9848  138.6004 N   0  0  0  0  0  0  0  0  0  0  0  0
  133.8252  124.2749  139.7671 C   0  0  0  0  0  0  0  0  0  0  0  0
  133.7499  124.9161  140.8469 O   0  0  0  0  0  0  0  0  0  0  0  0
  134.3011  122.9442  139.7119 N   0  0  0  0  0  0  0  0  0  0  0  0
  135.6485  122.7280  139.2961 C   0  0  0  0  0  0  0  0  0  0  0  0
  136.2584  121.4797  139.9014 C   0  0  0  0  0  0  0  0  0  0  0  0
  135.2360  120.3648  139.6940 C   0  0  0  0  0  0  0  0  0  0  0  0
  134.0814  120.6680  140.6043 C   0  0  0  0  0  0  0  0  0  0  0  0
  133.3790  121.8949  140.0874 C   0  0  0  0  0  0  0  0  0  0  0  0
  135.8483  119.0103  139.9565 C   0  0  0  0  0  0  0  0  0  0  0  0
  135.4451  118.1468  138.8375 N   0  0  0  0  0  0  0  0  0  0  0  0
  136.5301  117.8840  137.9237 C   0  0  0  0  0  0  0  0  0  0  0  0
  136.2815  118.7426  136.6864 C   0  0  0  0  0  0  0  0  0  0  0  0
  137.8328  118.2884  138.5851 C   0  0  0  0  0  0  0  0  0  0  0  0
  131.4009  126.2728  138.6973 C   0  0  0  0  0  0  0  0  0  0  0  0
  130.6999  127.0623  139.3225 O   0  0  0  0  0  0  0  0  0  0  0  0
  1  2  1  0
  2  3  1  0
  3  4  1  1
  3  5  1  0
  5  6  1  6
  6  7  1  0
  7  8  2  0
  7  9  1  0
  9 10  1  0
 10 11  1  0
 11 12  1  0
 12 13  1  0
 13 14  1  0
 12 15  1  0
 15 16  1  0
 16 17  1  0
 17 18  1  0
 17 19  1  0
  5 20  1  0
 20 21  2  0
 14  9  1  0
M  END
>  <docking_score>  (1) 
-5.9370000000000003

$$$$

     RDKit          3D

 21 21  0  0  0  0  0  0  0  0999 V2000
  130.8773  144.5710  141.6261 C   0  0  0  0  0  0  0  0  0  0  0  0
  129.9245  144.2749  140.4693 C   0  0  0  0  0  0  0  0  0  0  0  0
  130.0768  142.8121  140.0953 C   0  0  2  0  0  0  0  0  0  0  0  0
  129.3715  142.5292  138.7939 C   0  0  0  0  0  0  0  0  0  0  0  0
  129.4669  141.9469  141.1671 C   0  0  2  0  0  0  0  0  0  0  0  0
  129.5955  140.5546  140.7132 N   0  0  0  0  0  0  0  0  0  0  0  0
  129.9905  139.5155  141.6147 C   0  0  0  0  0  0  0  0  0  0  0  0
  130.2139  139.8829  142.7971 O   0  0  0  0  0  0  0  0  0  0  0  0
  130.1217  138.1678  141.2063 N   0  0  0  0  0  0  0  0  0  0  0  0
  129.8621  137.1451  142.1665 C   0  0  0  0  0  0  0  0  0  0  0  0
  129.3540  135.8630  141.5385 C   0  0  0  0  0  0  0  0  0  0  0  0
  130.2950  135.5588  140.3752 C   0  0  0  0  0  0  0  0  0  0  0  0
  130.0247  136.5956  139.3237 C   0  0  0  0  0  0  0  0  0  0  0  0
  130.5091  137.9263  139.8338 C   0  0  0  0  0  0  0  0  0  0  0  0
  130.0986  134.1494  139.8717 C   0  0  0  0  0  0  0  0  0  0  0  0
  130.4444  134.1653  138.4432 N   0  0  0  0  0  0  0  0  0  0  0  0
  129.6846  133.2051  137.6802 C   0  0  0  0  0  0  0  0  0  0  0  0
  129.6068  131.9350  138.5233 C   0  0  0  0  0  0  0  0  0  0  0  0
  128.2938  133.7605  137.4454 C   0  0  0  0  0  0  0  0  0  0  0  0
  127.9869  142.2337  141.2078 C   0  0  0  0  0  0  0  0  0  0  0  0
  127.3946  142.4637  142.2576 O   0  0  0  0  0  0  0  0  0  0  0  0
  1  2  1  0
  2  3  1  0
  3  4  1  6
  3  5  1  0
  5  6  1  6
  6  7  1  0
  7  8  2  0
  7  9  1  0
  9 10  1  0
 10 11  1  0
 11 12  1  0
 12 13  1  0
 13 14  1  0
 12 15  1  0
 15 16  1  0
 16 17  1  0
 17 18  1  0
 17 19  1  0
  5 20  1  0
 20 21  2  0
 14  9  1  0
M  END
>  <docking_score>  (2) 
-5.4649999999999999

$$$$

     RDKit          3D

 21 21  0  0  0  0  0  0  0  0999 V2000
  128.5180  135.8474  138.7137 C   0  0  0  0  0  0  0  0  0  0  0  0
  128.3656  137.3450  138.9737 C   0  0  0  0  0  0  0  0  0  0  0  0
  129.6598  137.8524  139.5823 C   0  0  2  0  0  0  0  0  0  0  0  0
  130.7602  136.8410  139.3887 C   0  0  0  0  0  0  0  0  0  0  0  0
  129.4728  138.0779  141.0601 C   0  0  2  0  0  0  0  0  0  0  0  0
  129.9415  139.4420  141.3440 N   0  0  0  0  0  0  0  0  0  0  0  0
  129.0186  140.5257  141.4940 C   0  0  0  0  0  0  0  0  0  0  0  0
  127.8045  140.2224  141.3648 O   0  0  0  0  0  0  0  0  0  0  0  0
  129.4407  141.8475  141.7681 N   0  0  0  0  0  0  0  0  0  0  0  0
  130.5497  142.3655  141.0353 C   0  0  0  0  0  0  0  0  0  0  0  0
  130.4918  143.8702  140.8651 C   0  0  0  0  0  0  0  0  0  0  0  0
  130.1917  144.4422  142.2486 C   0  0  0  0  0  0  0  0  0  0  0  0
  128.7725  144.0703  142.5668 C   0  0  0  0  0  0  0  0  0  0  0  0
  128.7077  142.5812  142.7764 C   0  0  0  0  0  0  0  0  0  0  0  0
  130.4281  145.9327  142.2834 C   0  0  0  0  0  0  0  0  0  0  0  0
  131.2791  146.2466  141.1269 N   0  0  0  0  0  0  0  0  0  0  0  0
  132.2755  147.2453  141.4292 C   0  0  0  0  0  0  0  0  0  0  0  0
  132.4302  147.2676  142.9476 C   0  0  0  0  0  0  0  0  0  0  0  0
  133.5835  146.8410  140.7782 C   0  0  0  0  0  0  0  0  0  0  0  0
  130.4150  137.1558  141.7925 C   0  0  0  0  0  0  0  0  0  0  0  0
  130.7147  137.3287  142.9697 O   0  0  0  0  0  0  0  0  0  0  0  0
  1  2  1  0
  2  3  1  0
  3  4  1  1
  3  5  1  0
  5  6  1  6
  6  7  1  0
  7  8  2  0
  7  9  1  0
  9 10  1  0
 10 11  1  0
 11 12  1  0
 12 13  1  0
 13 14  1  0
 12 15  1  0
 15 16  1  0
 16 17  1  0
 17 18  1  0
 17 19  1  0
  5 20  1  0
 20 21  2  0
 14  9  1  0
M  END
>  <docking_score>  (3) 
-5.3799999999999999

$$$$
