
     RDKit          3D

 27 31  0  0  0  0  0  0  0  0999 V2000
  136.3504  122.8632  141.1284 O   0  0  0  0  0  0  0  0  0  0  0  0
  135.9554  122.4905  139.9958 C   0  0  0  0  0  0  0  0  0  0  0  0
  136.3921  121.2766  139.4597 N   0  0  0  0  0  0  0  0  0  0  0  0
  137.2828  120.3535  140.1181 C   0  0  1  0  0  0  0  0  0  0  0  0
  136.8020  119.0673  140.6750 C   0  0  0  0  0  0  0  0  0  0  0  0
  137.7346  119.1176  139.4421 C   0  0  1  0  0  0  0  0  0  0  0  0
  137.1121  118.5766  138.2269 C   0  0  0  0  0  0  0  0  0  0  0  0
  135.8479  118.0590  138.1171 C   0  0  0  0  0  0  0  0  0  0  0  0
  135.2957  117.5547  136.9613 C   0  0  0  0  0  0  0  0  0  0  0  0
  136.0534  117.5659  135.8301 C   0  0  0  0  0  0  0  0  0  0  0  0
  137.3260  118.0649  135.8540 C   0  0  0  0  0  0  0  0  0  0  0  0
  137.8524  118.5679  137.0488 C   0  0  0  0  0  0  0  0  0  0  0  0
  135.0501  123.2841  139.2220 N   0  0  0  0  0  0  0  0  0  0  0  0
  134.5743  124.5327  139.7976 C   0  0  1  0  0  0  0  0  0  0  0  0
  135.4406  125.6316  139.7834 C   0  0  0  0  0  0  0  0  0  0  0  0
  134.3596  125.6418  138.9115 C   0  0  0  0  0  0  0  0  0  0  0  0
  133.7551  126.4989  137.8744 C   0  0  0  0  0  0  0  0  0  0  0  0
  133.0578  127.6197  138.0413 N   0  0  0  0  0  0  0  0  0  0  0  0
  132.6914  128.0885  136.8278 C   0  0  0  0  0  0  0  0  0  0  0  0
  131.9259  129.2998  136.5207 C   0  0  0  0  0  0  0  0  0  0  0  0
  130.8456  129.6176  137.3151 C   0  0  0  0  0  0  0  0  0  0  0  0
  130.1362  130.7477  137.0174 C   0  0  0  0  0  0  0  0  0  0  0  0
  130.5058  131.5437  135.9407 C   0  0  0  0  0  0  0  0  0  0  0  0
  131.5824  131.2313  135.1451 C   0  0  0  0  0  0  0  0  0  0  0  0
  132.2857  130.0855  135.4623 C   0  0  0  0  0  0  0  0  0  0  0  0
  133.1897  127.2157  135.9377 N   0  0  0  0  0  0  0  0  0  0  0  0
  133.8159  126.2815  136.5831 O   0  0  0  0  0  0  0  0  0  0  0  0
  1  2  2  0
  2  3  1  0
  4  3  1  6
  4  5  1  0
  5  6  1  0
  6  7  1  6
  7  8  2  0
  8  9  1  0
  9 10  2  0
 10 11  1  0
 11 12  2  0
  2 13  1  0
 14 13  1  6
 14 15  1  0
 15 16  2  0
 16 17  1  0
 17 18  2  0
 18 19  1  0
 19 20  1  0
 20 21  2  0
 21 22  1  0
 22 23  2  0
 23 24  1  0
 24 25  2  0
 19 26  2  0
 26 27  1  0
  6  4  1  0
 12  7  1  0
 16 14  1  0
 27 17  1  0
 25 20  1  0
M  END
>  <docking_score>  (1) 
-8.5259999999999998

$$$$

     RDKit          3D

 27 31  0  0  0  0  0  0  0  0999 V2000
  138.7515  116.6154  138.2168 O   0  0  0  0  0  0  0  0  0  0  0  0
  137.7759  116.9235  137.4880 C   0  0  0  0  0  0  0  0  0  0  0  0
  137.6046  116.3143  136.2426 N   0  0  0  0  0  0  0  0  0  0  0  0
  138.4706  115.3026  135.6897 C   0  0  1  0  0  0  0  0  0  0  0  0
  138.0433  114.4395  134.5636 C   0  0  0  0  0  0  0  0  0  0  0  0
  139.1488  115.5074  134.3909 C   0  0  1  0  0  0  0  0  0  0  0  0
  138.7854  116.5632  133.4368 C   0  0  0  0  0  0  0  0  0  0  0  0
  139.1132  117.8911  133.5233 C   0  0  0  0  0  0  0  0  0  0  0  0
  138.7517  118.8575  132.6120 C   0  0  0  0  0  0  0  0  0  0  0  0
  138.0112  118.4783  131.5342 C   0  0  0  0  0  0  0  0  0  0  0  0
  137.6416  117.1720  131.3730 C   0  0  0  0  0  0  0  0  0  0  0  0
  138.0277  116.2188  132.3219 C   0  0  0  0  0  0  0  0  0  0  0  0
  136.8115  117.8961  137.9027 N   0  0  0  0  0  0  0  0  0  0  0  0
  136.9773  118.5053  139.2135 C   0  0  1  0  0  0  0  0  0  0  0  0
  137.6934  119.7051  139.2914 C   0  0  0  0  0  0  0  0  0  0  0  0
  136.3159  119.7553  139.4614 C   0  0  0  0  0  0  0  0  0  0  0  0
  135.2466  120.7376  139.7207 C   0  0  0  0  0  0  0  0  0  0  0  0
  135.2988  122.0604  139.5877 N   0  0  0  0  0  0  0  0  0  0  0  0
  134.0977  122.5792  139.9268 C   0  0  0  0  0  0  0  0  0  0  0  0
  133.6867  123.9857  139.9202 C   0  0  0  0  0  0  0  0  0  0  0  0
  134.2648  124.8472  140.8274 C   0  0  0  0  0  0  0  0  0  0  0  0
  133.8714  126.1563  140.8150 C   0  0  0  0  0  0  0  0  0  0  0  0
  132.9140  126.5917  139.9076 C   0  0  0  0  0  0  0  0  0  0  0  0
  132.3342  125.7368  139.0006 C   0  0  0  0  0  0  0  0  0  0  0  0
  132.7451  124.4183  139.0296 C   0  0  0  0  0  0  0  0  0  0  0  0
  133.3328  121.5289  140.2646 N   0  0  0  0  0  0  0  0  0  0  0  0
  134.0369  120.4478  140.1346 O   0  0  0  0  0  0  0  0  0  0  0  0
  1  2  2  0
  2  3  1  0
  4  3  1  6
  4  5  1  0
  5  6  1  0
  6  7  1  6
  7  8  2  0
  8  9  1  0
  9 10  2  0
 10 11  1  0
 11 12  2  0
  2 13  1  0
 14 13  1  6
 14 15  1  0
 15 16  2  0
 16 17  1  0
 17 18  2  0
 18 19  1  0
 19 20  1  0
 20 21  2  0
 21 22  1  0
 22 23  2  0
 23 24  1  0
 24 25  2  0
 19 26  2  0
 26 27  1  0
  6  4  1  0
 12  7  1  0
 16 14  1  0
 27 17  1  0
 25 20  1  0
M  END
>  <docking_score>  (2) 
-8.2729999999999997

$$$$

     RDKit          3D

 27 31  0  0  0  0  0  0  0  0999 V2000
  136.4368  122.9357  141.4262 O   0  0  0  0  0  0  0  0  0  0  0  0
  135.7508  123.0903  140.3854 C   0  0  0  0  0  0  0  0  0  0  0  0
  135.3499  124.3678  139.9870 N   0  0  0  0  0  0  0  0  0  0  0  0
  135.6767  125.5909  140.6772 C   0  0  1  0  0  0  0  0  0  0  0  0
  134.9757  126.8633  140.3854 C   0  0  0  0  0  0  0  0  0  0  0  0
  134.7923  126.1287  141.7342 C   0  0  1  0  0  0  0  0  0  0  0  0
  133.4147  125.6713  141.9580 C   0  0  0  0  0  0  0  0  0  0  0  0
  132.6067  125.0367  141.0510 C   0  0  0  0  0  0  0  0  0  0  0  0
  131.3156  124.6245  141.2924 C   0  0  0  0  0  0  0  0  0  0  0  0
  130.7873  124.8579  142.5253 C   0  0  0  0  0  0  0  0  0  0  0  0
  131.5272  125.4862  143.4881 C   0  0  0  0  0  0  0  0  0  0  0  0
  132.8361  125.8912  143.2041 C   0  0  0  0  0  0  0  0  0  0  0  0
  135.3616  121.9767  139.5751 N   0  0  0  0  0  0  0  0  0  0  0  0
  135.8073  120.6515  139.9774 C   0  0  1  0  0  0  0  0  0  0  0  0
  134.9279  119.5797  139.7868 C   0  0  0  0  0  0  0  0  0  0  0  0
  136.0300  119.6766  138.9473 C   0  0  0  0  0  0  0  0  0  0  0  0
  136.6494  118.9662  137.8126 C   0  0  0  0  0  0  0  0  0  0  0  0
  136.3918  119.1116  136.5154 N   0  0  0  0  0  0  0  0  0  0  0  0
  137.1859  118.2695  135.8175 C   0  0  0  0  0  0  0  0  0  0  0  0
  137.2604  118.0938  134.3646 C   0  0  0  0  0  0  0  0  0  0  0  0
  138.4999  118.0919  133.7621 C   0  0  0  0  0  0  0  0  0  0  0  0
  138.5577  117.9310  132.4058 C   0  0  0  0  0  0  0  0  0  0  0  0
  137.3909  117.7752  131.6683 C   0  0  0  0  0  0  0  0  0  0  0  0
  136.1521  117.7764  132.2641 C   0  0  0  0  0  0  0  0  0  0  0  0
  136.1152  117.9406  133.6351 C   0  0  0  0  0  0  0  0  0  0  0  0
  137.9202  117.6212  136.7355 N   0  0  0  0  0  0  0  0  0  0  0  0
  137.5833  118.0516  137.9114 O   0  0  0  0  0  0  0  0  0  0  0  0
  1  2  2  0
  2  3  1  0
  4  3  1  6
  4  5  1  0
  5  6  1  0
  6  7  1  6
  7  8  2  0
  8  9  1  0
  9 10  2  0
 10 11  1  0
 11 12  2  0
  2 13  1  0
 14 13  1  6
 14 15  1  0
 15 16  2  0
 16 17  1  0
 17 18  2  0
 18 19  1  0
 19 20  1  0
 20 21  2  0
 21 22  1  0
 22 23  2  0
 23 24  1  0
 24 25  2  0
 19 26  2  0
 26 27  1  0
  6  4  1  0
 12  7  1  0
 16 14  1  0
 27 17  1  0
 25 20  1  0
M  END
>  <docking_score>  (3) 
-8.2200000000000006

$$$$
