
     RDKit          3D

 22 25  0  0  0  0  0  0  0  0999 V2000
  141.8586  131.5463  138.3686 O   0  0  0  0  0  0  0  0  0  0  0  0
  141.5806  132.3201  137.4167 C   0  0  0  0  0  0  0  0  0  0  0  0
  140.1718  132.4328  137.1787 N   0  0  0  0  0  0  0  0  0  0  0  0
  139.3589  132.7425  136.0500 C   0  0  0  0  0  0  0  0  0  0  0  0
  138.0567  132.3977  136.3786 C   0  0  0  0  0  0  0  0  0  0  0  0
  137.0271  132.5808  135.4804 C   0  0  0  0  0  0  0  0  0  0  0  0
  135.3713  132.1430  135.8965 Cl  0  0  0  0  0  0  0  0  0  0  0  0
  137.3467  133.1175  134.2513 C   0  0  0  0  0  0  0  0  0  0  0  0
  138.6484  133.4606  133.9268 C   0  0  0  0  0  0  0  0  0  0  0  0
  138.9609  133.9908  132.7112 F   0  0  0  0  0  0  0  0  0  0  0  0
  139.6852  133.2805  134.8205 C   0  0  0  0  0  0  0  0  0  0  0  0
  142.7494  132.9016  136.8017 N   0  0  0  0  0  0  0  0  0  0  0  0
  143.0043  133.6233  135.5933 C   0  0  0  0  0  0  0  0  0  0  0  0
  144.4031  134.1212  135.4656 C   0  0  1  0  0  0  0  0  0  0  0  0
  144.4549  134.9591  134.2377 C   0  0  2  0  0  0  0  0  0  0  0  0
  143.1411  134.7434  133.5686 C   0  0  0  0  0  0  0  0  0  0  0  0
  142.2999  133.9664  134.5426 C   0  0  0  0  0  0  0  0  0  0  0  0
  140.9101  133.7426  134.1614 C   0  0  0  0  0  0  0  0  0  0  0  0
  140.6850  134.0142  132.9432 O   0  0  0  0  0  0  0  0  0  0  0  0
  145.6507  134.7920  133.4324 N   0  0  0  0  0  0  0  0  0  0  0  0
  144.4911  135.6584  135.5273 C   0  0  2  0  0  0  0  0  0  0  0  0
  146.0337  136.2139  136.2087 Cl  0  0  0  0  0  0  0  0  0  0  0  0
  1  2  2  0
  2  3  1  0
  3  4  1  0
  4  5  2  0
  5  6  1  0
  6  7  1  0
  6  8  2  0
  8  9  1  0
  9 10  1  0
  9 11  2  0
  2 12  1  0
 12 13  1  0
 14 13  1  6
 14 15  1  0
 15 16  1  0
 16 17  1  0
 17 18  1  0
 18 19  2  0
 15 20  1  6
 15 21  1  0
 21 22  1  1
 11  4  1  0
 18 11  1  0
 13 17  2  0
 21 14  1  0
M  END
>  <docking_score>  (1) 
-8.0069999999999997

$$$$

     RDKit          3D

 22 25  0  0  0  0  0  0  0  0999 V2000
  136.5046  118.5683  132.1447 O   0  0  0  0  0  0  0  0  0  0  0  0
  136.8743  117.7357  133.0121 C   0  0  0  0  0  0  0  0  0  0  0  0
  136.4411  118.0747  134.3355 N   0  0  0  0  0  0  0  0  0  0  0  0
  136.9131  117.8072  135.6532 C   0  0  0  0  0  0  0  0  0  0  0  0
  136.2341  118.6599  136.5102 C   0  0  0  0  0  0  0  0  0  0  0  0
  136.4750  118.6397  137.8674 C   0  0  0  0  0  0  0  0  0  0  0  0
  135.6128  119.7229  138.9583 Cl  0  0  0  0  0  0  0  0  0  0  0  0
  137.4130  117.7418  138.3310 C   0  0  0  0  0  0  0  0  0  0  0  0
  138.0891  116.8920  137.4719 C   0  0  0  0  0  0  0  0  0  0  0  0
  139.0155  116.0058  137.9333 F   0  0  0  0  0  0  0  0  0  0  0  0
  137.8537  116.9058  136.1115 C   0  0  0  0  0  0  0  0  0  0  0  0
  137.6424  116.6466  132.4584 N   0  0  0  0  0  0  0  0  0  0  0  0
  138.4650  115.6098  133.0006 C   0  0  0  0  0  0  0  0  0  0  0  0
  138.9597  114.6338  131.9889 C   0  0  1  0  0  0  0  0  0  0  0  0
  139.6691  113.5592  132.7334 C   0  0  2  0  0  0  0  0  0  0  0  0
  139.7571  114.0556  134.1356 C   0  0  0  0  0  0  0  0  0  0  0  0
  138.9050  115.2928  134.1939 C   0  0  0  0  0  0  0  0  0  0  0  0
  138.7274  115.8939  135.5107 C   0  0  0  0  0  0  0  0  0  0  0  0
  139.5323  115.4309  136.3746 O   0  0  0  0  0  0  0  0  0  0  0  0
  140.8940  113.0900  132.1123 N   0  0  0  0  0  0  0  0  0  0  0  0
  138.3523  113.2300  132.1757 C   0  0  2  0  0  0  0  0  0  0  0  0
  138.2182  112.3488  130.6402 Cl  0  0  0  0  0  0  0  0  0  0  0  0
  1  2  2  0
  2  3  1  0
  3  4  1  0
  4  5  2  0
  5  6  1  0
  6  7  1  0
  6  8  2  0
  8  9  1  0
  9 10  1  0
  9 11  2  0
  2 12  1  0
 12 13  1  0
 14 13  1  1
 14 15  1  0
 15 16  1  0
 16 17  1  0
 17 18  1  0
 18 19  2  0
 15 20  1  6
 15 21  1  0
 21 22  1  6
 11  4  1  0
 18 11  1  0
 13 17  2  0
 21 14  1  0
M  END
>  <docking_score>  (2) 
-7.7910000000000004

$$$$

     RDKit          3D

 22 25  0  0  0  0  0  0  0  0999 V2000
  139.4238  113.4442  137.8743 O   0  0  0  0  0  0  0  0  0  0  0  0
  139.1313  114.2707  136.9722 C   0  0  0  0  0  0  0  0  0  0  0  0
  138.7795  115.5612  137.4866 N   0  0  0  0  0  0  0  0  0  0  0  0
  137.9717  116.6442  137.0334 C   0  0  0  0  0  0  0  0  0  0  0  0
  137.7860  117.4938  138.1133 C   0  0  0  0  0  0  0  0  0  0  0  0
  137.0385  118.6454  137.9884 C   0  0  0  0  0  0  0  0  0  0  0  0
  136.8013  119.7265  139.3602 Cl  0  0  0  0  0  0  0  0  0  0  0  0
  136.4885  118.9127  136.7527 C   0  0  0  0  0  0  0  0  0  0  0  0
  136.6762  118.0617  135.6767 C   0  0  0  0  0  0  0  0  0  0  0  0
  136.1313  118.3288  134.4568 F   0  0  0  0  0  0  0  0  0  0  0  0
  137.4234  116.9065  135.7933 C   0  0  0  0  0  0  0  0  0  0  0  0
  139.2229  113.7133  135.6442 N   0  0  0  0  0  0  0  0  0  0  0  0
  138.7929  114.1224  134.3428 C   0  0  0  0  0  0  0  0  0  0  0  0
  139.2440  113.2240  133.2427 C   0  0  1  0  0  0  0  0  0  0  0  0
  138.8367  113.8657  131.9641 C   0  0  2  0  0  0  0  0  0  0  0  0
  137.9674  115.0073  132.3658 C   0  0  0  0  0  0  0  0  0  0  0  0
  138.0840  115.1140  133.8608 C   0  0  0  0  0  0  0  0  0  0  0  0
  137.4166  116.2523  134.4817 C   0  0  0  0  0  0  0  0  0  0  0  0
  136.6170  116.8425  133.6938 O   0  0  0  0  0  0  0  0  0  0  0  0
  138.3215  112.9547  130.9586 N   0  0  0  0  0  0  0  0  0  0  0  0
  140.2632  113.9017  132.3066 C   0  0  2  0  0  0  0  0  0  0  0  0
  141.3924  112.7345  131.5890 Cl  0  0  0  0  0  0  0  0  0  0  0  0
  1  2  2  0
  2  3  1  0
  3  4  1  0
  4  5  2  0
  5  6  1  0
  6  7  1  0
  6  8  2  0
  8  9  1  0
  9 10  1  0
  9 11  2  0
  2 12  1  0
 12 13  1  0
 14 13  1  1
 14 15  1  0
 15 16  1  0
 16 17  1  0
 17 18  1  0
 18 19  2  0
 15 20  1  6
 15 21  1  0
 21 22  1  6
 11  4  1  0
 18 11  1  0
 13 17  2  0
 21 14  1  0
M  END
>  <docking_score>  (3) 
-7.2590000000000003

$$$$
