
     RDKit          3D

 11 11  0  0  0  0  0  0  0  0999 V2000
  121.0648  127.7253  140.1410 O   0  0  0  0  0  0  0  0  0  0  0  0
  122.2464  127.6857  140.5684 C   0  0  0  0  0  0  0  0  0  0  0  0
  122.6954  126.5002  141.2577 N   0  0  0  0  0  0  0  0  0  0  0  0
  124.1042  126.4390  141.5391 C   0  0  0  0  0  0  0  0  0  0  0  0
  124.6824  125.7542  142.5413 C   0  0  0  0  0  0  0  0  0  0  0  0
  124.0311  124.9331  143.5531 C   0  0  0  0  0  0  0  0  0  0  0  0
  124.7867  124.1700  144.3242 C   0  0  0  0  0  0  0  0  0  0  0  0
  124.3072  123.3786  145.2808 F   0  0  0  0  0  0  0  0  0  0  0  0
  121.7122  125.5194  141.5874 C   0  0  0  0  0  0  0  0  0  0  0  0
  121.6712  125.1051  142.9835 C   0  0  0  0  0  0  0  0  0  0  0  0
  122.6525  124.8589  143.8084 N   0  0  0  0  0  0  0  0  0  0  0  0
  1  2  2  0
  2  3  1  0
  3  4  1  0
  4  5  2  0
  5  6  1  0
  6  7  2  3
  7  8  1  0
  3  9  1  0
  9 10  1  0
 10 11  2  0
 11  6  1  0
M  END
>  <docking_score>  (1) 
-4.4329999999999998

$$$$

     RDKit          3D

 11 11  0  0  0  0  0  0  0  0999 V2000
  135.4565  124.0510  139.4057 O   0  0  0  0  0  0  0  0  0  0  0  0
  135.9653  123.5258  140.4283 C   0  0  0  0  0  0  0  0  0  0  0  0
  136.0736  122.0882  140.4889 N   0  0  0  0  0  0  0  0  0  0  0  0
  134.8809  121.3588  140.1527 C   0  0  0  0  0  0  0  0  0  0  0  0
  134.8295  120.1084  139.6612 C   0  0  0  0  0  0  0  0  0  0  0  0
  135.9451  119.2210  139.3613 C   0  0  0  0  0  0  0  0  0  0  0  0
  135.6836  117.9547  139.0857 C   0  0  0  0  0  0  0  0  0  0  0  0
  136.6175  117.0513  138.7971 F   0  0  0  0  0  0  0  0  0  0  0  0
  137.3346  121.5394  140.8710 C   0  0  0  0  0  0  0  0  0  0  0  0
  137.8956  120.5453  139.9657 C   0  0  0  0  0  0  0  0  0  0  0  0
  137.3049  119.5692  139.3314 N   0  0  0  0  0  0  0  0  0  0  0  0
  1  2  2  0
  2  3  1  0
  3  4  1  0
  4  5  2  0
  5  6  1  0
  6  7  2  3
  7  8  1  0
  3  9  1  0
  9 10  1  0
 10 11  2  0
 11  6  1  0
M  END
>  <docking_score>  (2) 
-4.298

$$$$
