
     RDKit          3D

 11 11  0  0  0  0  0  0  0  0999 V2000
  136.9656  130.6450  137.6476 O   0  0  0  0  0  0  0  0  0  0  0  0
  137.9483  131.4206  137.7094 C   0  0  0  0  0  0  0  0  0  0  0  0
  138.4490  132.0418  136.5383 N   0  0  0  0  0  0  0  0  0  0  0  0
  137.4460  132.6946  135.7605 C   0  0  0  0  0  0  0  0  0  0  0  0
  137.5864  133.0911  134.4908 C   0  0  0  0  0  0  0  0  0  0  0  0
  138.7893  132.9384  133.6434 C   0  0  0  0  0  0  0  0  0  0  0  0
  138.8300  133.6402  132.5329 C   0  0  0  0  0  0  0  0  0  0  0  0
  139.9039  133.5342  131.7295 F   0  0  0  0  0  0  0  0  0  0  0  0
  139.8635  131.9019  136.3517 C   0  0  0  0  0  0  0  0  0  0  0  0
  140.3448  131.6975  135.0091 C   0  0  0  0  0  0  0  0  0  0  0  0
  139.9077  132.1219  133.8830 N   0  0  0  0  0  0  0  0  0  0  0  0
  1  2  2  0
  2  3  1  0
  3  4  1  0
  4  5  2  0
  5  6  1  0
  6  7  2  3
  7  8  1  0
  3  9  1  0
  9 10  1  0
 10 11  2  0
 11  6  1  0
M  END
>  <docking_score>  (1) 
-4.3550000000000004

$$$$

     RDKit          3D

 11 11  0  0  0  0  0  0  0  0999 V2000
  136.5441  124.2781  141.9031 O   0  0  0  0  0  0  0  0  0  0  0  0
  136.9453  123.6109  140.9208 C   0  0  0  0  0  0  0  0  0  0  0  0
  136.5423  122.2625  140.7545 N   0  0  0  0  0  0  0  0  0  0  0  0
  137.6273  121.3616  140.5346 C   0  0  0  0  0  0  0  0  0  0  0  0
  137.5158  120.1158  140.0608 C   0  0  0  0  0  0  0  0  0  0  0  0
  136.2668  119.4245  139.6729 C   0  0  0  0  0  0  0  0  0  0  0  0
  136.3325  118.1226  139.5054 C   0  0  0  0  0  0  0  0  0  0  0  0
  135.2220  117.4502  139.1523 F   0  0  0  0  0  0  0  0  0  0  0  0
  135.1267  122.0524  140.8383 C   0  0  0  0  0  0  0  0  0  0  0  0
  134.5390  121.0876  139.9439 C   0  0  0  0  0  0  0  0  0  0  0  0
  135.0022  119.9981  139.4565 N   0  0  0  0  0  0  0  0  0  0  0  0
  1  2  2  0
  2  3  1  0
  3  4  1  0
  4  5  2  0
  5  6  1  0
  6  7  2  3
  7  8  1  0
  3  9  1  0
  9 10  1  0
 10 11  2  0
 11  6  1  0
M  END
>  <docking_score>  (2) 
-4.3280000000000003

$$$$

     RDKit          3D

 11 11  0  0  0  0  0  0  0  0999 V2000
  121.6519  127.7048  141.1793 O   0  0  0  0  0  0  0  0  0  0  0  0
  121.9013  126.5210  141.5071 C   0  0  0  0  0  0  0  0  0  0  0  0
  121.2272  125.4438  140.8799 N   0  0  0  0  0  0  0  0  0  0  0  0
  120.2338  125.8560  139.9416 C   0  0  0  0  0  0  0  0  0  0  0  0
  119.2682  125.0762  139.4431 C   0  0  0  0  0  0  0  0  0  0  0  0
  119.0330  123.6494  139.7550 C   0  0  0  0  0  0  0  0  0  0  0  0
  118.2233  122.9897  138.9571 C   0  0  0  0  0  0  0  0  0  0  0  0
  117.9787  121.6894  139.2008 F   0  0  0  0  0  0  0  0  0  0  0  0
  121.6654  124.1452  141.3002 C   0  0  0  0  0  0  0  0  0  0  0  0
  120.6667  123.1175  141.4499 C   0  0  0  0  0  0  0  0  0  0  0  0
  119.5750  122.9040  140.8159 N   0  0  0  0  0  0  0  0  0  0  0  0
  1  2  2  0
  2  3  1  0
  3  4  1  0
  4  5  2  0
  5  6  1  0
  6  7  2  3
  7  8  1  0
  3  9  1  0
  9 10  1  0
 10 11  2  0
 11  6  1  0
M  END
>  <docking_score>  (3) 
-3.488

$$$$
