
     RDKit          3D

 25 26  0  0  0  0  0  0  0  0999 V2000
  137.9174  114.9475  130.6304 C   0  0  0  0  0  0  0  0  0  0  0  0
  137.0056  113.8282  130.1849 C   0  0  2  0  0  0  0  0  0  0  0  0
  135.8882  114.4705  129.3800 C   0  0  0  0  0  0  0  0  0  0  0  0
  136.4172  113.0987  131.2673 N   0  0  0  0  0  0  0  0  0  0  0  0
  137.3908  112.6248  132.2283 C   0  0  0  0  0  0  0  0  0  0  0  0
  138.1679  113.7559  132.8410 C   0  0  2  0  0  0  0  0  0  0  0  0
  138.0124  113.8715  134.3159 C   0  0  0  0  0  0  0  0  0  0  0  0
  136.8885  114.7845  134.7376 C   0  0  0  0  0  0  0  0  0  0  0  0
  137.4104  116.1205  134.8314 N   0  0  0  0  0  0  0  0  0  0  0  0
  137.0931  116.8007  136.0363 C   0  0  0  0  0  0  0  0  0  0  0  0
  135.9140  117.0886  136.3069 O   0  0  0  0  0  0  0  0  0  0  0  0
  138.0943  117.1795  136.9773 N   0  0  0  0  0  0  0  0  0  0  0  0
  137.7197  117.8527  138.1549 C   0  0  0  0  0  0  0  0  0  0  0  0
  137.8873  119.1354  138.3704 C   0  0  0  0  0  0  0  0  0  0  0  0
  137.4719  119.7525  139.6162 C   0  0  0  0  0  0  0  0  0  0  0  0
  138.2531  119.4959  140.8373 C   0  0  0  0  0  0  0  0  0  0  0  0
  136.4135  120.5245  139.6333 C   0  0  0  0  0  0  0  0  0  0  0  0
  135.9118  121.1867  140.8101 C   0  0  0  0  0  0  0  0  0  0  0  0
  135.1949  120.5112  141.7339 F   0  0  0  0  0  0  0  0  0  0  0  0
  136.1454  122.4718  141.0065 C   0  0  0  0  0  0  0  0  0  0  0  0
  138.1993  116.8173  133.8527 C   0  0  0  0  0  0  0  0  0  0  0  0
  138.0728  116.2969  132.4821 C   0  0  0  0  0  0  0  0  0  0  0  0
  137.9390  117.3234  131.4050 C   0  0  0  0  0  0  0  0  0  0  0  0
  136.7339  118.1991  131.5954 C   0  0  0  0  0  0  0  0  0  0  0  0
  138.0647  115.0271  132.1072 C   0  0  0  0  0  0  0  0  0  0  0  0
  1  2  1  0
  2  3  1  1
  2  4  1  0
  4  5  1  0
  6  5  1  6
  6  7  1  0
  7  8  1  0
  8  9  1  0
  9 10  1  0
 10 11  2  0
 10 12  1  0
 12 13  1  0
 13 14  2  3
 14 15  1  0
 15 16  1  0
 15 17  2  3
 17 18  1  0
 18 19  1  0
 18 20  2  0
  9 21  1  0
 21 22  1  0
 22 23  1  0
 23 24  1  0
  6 25  1  0
 25  1  1  0
 22 25  2  0
M  END
>  <docking_score>  (1) 
-7.1470000000000002

$$$$

     RDKit          3D

 25 26  0  0  0  0  0  0  0  0999 V2000
  134.9038  125.5246  140.4357 C   0  0  0  0  0  0  0  0  0  0  0  0
  135.9768  125.4729  141.4981 C   0  0  2  0  0  0  0  0  0  0  0  0
  136.5768  124.0778  141.4441 C   0  0  0  0  0  0  0  0  0  0  0  0
  135.4866  125.6999  142.8240 N   0  0  0  0  0  0  0  0  0  0  0  0
  134.6991  126.9093  142.9390 C   0  0  0  0  0  0  0  0  0  0  0  0
  133.5002  126.8840  142.0330 C   0  0  2  0  0  0  0  0  0  0  0  0
  132.1975  126.9694  142.7462 C   0  0  0  0  0  0  0  0  0  0  0  0
  131.6103  125.6260  143.0998 C   0  0  0  0  0  0  0  0  0  0  0  0
  130.8114  125.1824  141.9904 N   0  0  0  0  0  0  0  0  0  0  0  0
  129.5085  124.7367  142.3351 C   0  0  0  0  0  0  0  0  0  0  0  0
  129.0338  123.7118  141.8150 O   0  0  0  0  0  0  0  0  0  0  0  0
  128.6962  125.4314  143.2780 N   0  0  0  0  0  0  0  0  0  0  0  0
  127.4117  124.9421  143.5798 C   0  0  0  0  0  0  0  0  0  0  0  0
  126.5098  125.5869  144.2802 C   0  0  0  0  0  0  0  0  0  0  0  0
  125.2057  125.0091  144.5468 C   0  0  0  0  0  0  0  0  0  0  0  0
  124.3620  125.6013  145.5979 C   0  0  0  0  0  0  0  0  0  0  0  0
  124.8026  123.9750  143.8506 C   0  0  0  0  0  0  0  0  0  0  0  0
  123.5308  123.3228  144.0299 C   0  0  0  0  0  0  0  0  0  0  0  0
  123.3950  122.2920  144.8917 F   0  0  0  0  0  0  0  0  0  0  0  0
  122.4709  123.7235  143.3512 C   0  0  0  0  0  0  0  0  0  0  0  0
  131.1907  125.1455  140.6045 C   0  0  0  0  0  0  0  0  0  0  0  0
  132.6430  125.1267  140.3683 C   0  0  0  0  0  0  0  0  0  0  0  0
  133.1210  124.1714  139.3239 C   0  0  0  0  0  0  0  0  0  0  0  0
  133.2089  122.7619  139.8347 C   0  0  0  0  0  0  0  0  0  0  0  0
  133.5613  125.8597  140.9784 C   0  0  0  0  0  0  0  0  0  0  0  0
  1  2  1  0
  2  3  1  1
  2  4  1  0
  4  5  1  0
  6  5  1  1
  6  7  1  0
  7  8  1  0
  8  9  1  0
  9 10  1  0
 10 11  2  0
 10 12  1  0
 12 13  1  0
 13 14  2  3
 14 15  1  0
 15 16  1  0
 15 17  2  3
 17 18  1  0
 18 19  1  0
 18 20  2  0
  9 21  1  0
 21 22  1  0
 22 23  1  0
 23 24  1  0
  6 25  1  0
 25  1  1  0
 22 25  2  0
M  END
>  <docking_score>  (2) 
-6.7359999999999998

$$$$

     RDKit          3D

 25 26  0  0  0  0  0  0  0  0999 V2000
  128.6442  138.6045  145.1674 C   0  0  0  0  0  0  0  0  0  0  0  0
  127.4111  139.4621  145.0045 C   0  0  2  0  0  0  0  0  0  0  0  0
  126.2204  138.5837  145.3506 C   0  0  0  0  0  0  0  0  0  0  0  0
  127.2286  139.9627  143.6756 N   0  0  0  0  0  0  0  0  0  0  0  0
  128.4012  140.6341  143.1556 C   0  0  0  0  0  0  0  0  0  0  0  0
  129.5951  139.7222  143.1142 C   0  0  2  0  0  0  0  0  0  0  0  0
  130.1473  139.5054  141.7500 C   0  0  0  0  0  0  0  0  0  0  0  0
  129.5602  138.3109  141.0407 C   0  0  0  0  0  0  0  0  0  0  0  0
  130.3444  137.1570  141.3864 N   0  0  0  0  0  0  0  0  0  0  0  0
  130.7576  136.3653  140.2829 C   0  0  0  0  0  0  0  0  0  0  0  0
  130.0830  135.3851  139.9216 O   0  0  0  0  0  0  0  0  0  0  0  0
  131.9455  136.6515  139.5492 N   0  0  0  0  0  0  0  0  0  0  0  0
  132.3050  135.8306  138.4643 C   0  0  0  0  0  0  0  0  0  0  0  0
  133.3832  135.0859  138.4132 C   0  0  0  0  0  0  0  0  0  0  0  0
  133.6806  134.2662  137.2533 C   0  0  0  0  0  0  0  0  0  0  0  0
  132.9277  134.4886  136.0078 C   0  0  0  0  0  0  0  0  0  0  0  0
  134.6102  133.3465  137.3334 C   0  0  0  0  0  0  0  0  0  0  0  0
  134.9871  132.4780  136.2477 C   0  0  0  0  0  0  0  0  0  0  0  0
  135.8259  132.9029  135.2784 F   0  0  0  0  0  0  0  0  0  0  0  0
  134.5166  131.2456  136.1813 C   0  0  0  0  0  0  0  0  0  0  0  0
  130.7402  136.7363  142.7025 C   0  0  0  0  0  0  0  0  0  0  0  0
  129.9026  137.2643  143.7910 C   0  0  0  0  0  0  0  0  0  0  0  0
  129.5257  136.2868  144.8561 C   0  0  0  0  0  0  0  0  0  0  0  0
  130.6953  135.4674  145.3208 C   0  0  0  0  0  0  0  0  0  0  0  0
  129.4520  138.5020  143.9239 C   0  0  0  0  0  0  0  0  0  0  0  0
  1  2  1  0
  2  3  1  6
  2  4  1  0
  4  5  1  0
  6  5  1  6
  6  7  1  0
  7  8  1  0
  8  9  1  0
  9 10  1  0
 10 11  2  0
 10 12  1  0
 12 13  1  0
 13 14  2  3
 14 15  1  0
 15 16  1  0
 15 17  2  3
 17 18  1  0
 18 19  1  0
 18 20  2  0
  9 21  1  0
 21 22  1  0
 22 23  1  0
 23 24  1  0
  6 25  1  0
 25  1  1  0
 22 25  2  0
M  END
>  <docking_score>  (3) 
-6.7190000000000003

$$$$
