
     RDKit          3D

 22 24  0  0  0  0  0  0  0  0999 V2000
  139.4979  113.9061  136.4447 O   0  0  0  0  0  0  0  0  0  0  0  0
  138.7622  114.7931  135.9493 C   0  0  0  0  0  0  0  0  0  0  0  0
  138.4639  114.6299  134.5884 N   0  0  0  0  0  0  0  0  0  0  0  0
  137.9576  115.5223  133.5783 C   0  0  0  0  0  0  0  0  0  0  0  0
  138.1086  114.7996  132.4165 C   0  0  0  0  0  0  0  0  0  0  0  0
  137.7027  115.3999  131.2379 C   0  0  0  0  0  0  0  0  0  0  0  0
  137.8964  114.4753  129.7557 Cl  0  0  0  0  0  0  0  0  0  0  0  0
  137.1689  116.6711  131.2312 C   0  0  0  0  0  0  0  0  0  0  0  0
  137.0229  117.3813  132.3915 C   0  0  0  0  0  0  0  0  0  0  0  0
  136.5074  118.6325  132.4609 F   0  0  0  0  0  0  0  0  0  0  0  0
  137.4272  116.7906  133.5890 C   0  0  0  0  0  0  0  0  0  0  0  0
  138.4110  115.7729  136.9473 N   0  0  0  0  0  0  0  0  0  0  0  0
  137.6122  116.9480  137.0013 C   0  0  0  0  0  0  0  0  0  0  0  0
  137.2475  117.4013  138.3639 C   0  0  0  0  0  0  0  0  0  0  0  0
  135.9486  118.1600  138.0803 C   0  0  2  0  0  0  0  0  0  0  0  0
  136.3261  118.8592  136.7723 C   0  0  0  0  0  0  0  0  0  0  0  0
  137.0952  117.7674  136.0831 C   0  0  0  0  0  0  0  0  0  0  0  0
  137.1469  117.7817  134.6222 C   0  0  0  0  0  0  0  0  0  0  0  0
  136.8854  118.9251  134.1749 O   0  0  0  0  0  0  0  0  0  0  0  0
  135.7643  119.3699  139.4233 S   0  0  0  0  0  0  0  0  0  0  0  0
  137.3206  119.7580  140.1513 N   0  0  0  0  0  0  0  0  0  0  0  0
  137.2206  121.3433  140.8657 Cl  0  0  0  0  0  0  0  0  0  0  0  0
  1  2  2  0
  2  3  1  0
  3  4  1  0
  4  5  2  0
  5  6  1  0
  6  7  1  0
  6  8  2  0
  8  9  1  0
  9 10  1  0
  9 11  2  0
  2 12  1  0
 12 13  1  0
 13 14  1  0
 14 15  1  0
 15 16  1  0
 16 17  1  0
 17 18  1  0
 18 19  2  0
 15 20  1  1
 20 21  1  0
 21 22  1  0
 11  4  1  0
 18 11  1  0
 13 17  2  0
M  END
>  <docking_score>  (1) 
-7.3799999999999999

$$$$

     RDKit          3D

 22 24  0  0  0  0  0  0  0  0999 V2000
  124.5655  123.1742  145.4190 O   0  0  0  0  0  0  0  0  0  0  0  0
  124.7800  123.8905  144.4120 C   0  0  0  0  0  0  0  0  0  0  0  0
  126.1264  124.2104  144.1827 N   0  0  0  0  0  0  0  0  0  0  0  0
  126.7764  125.2171  143.3846 C   0  0  0  0  0  0  0  0  0  0  0  0
  128.0930  125.1266  143.7760 C   0  0  0  0  0  0  0  0  0  0  0  0
  128.9948  125.9866  143.1748 C   0  0  0  0  0  0  0  0  0  0  0  0
  130.6754  125.8691  143.6762 Cl  0  0  0  0  0  0  0  0  0  0  0  0
  128.5875  126.8965  142.2225 C   0  0  0  0  0  0  0  0  0  0  0  0
  127.2763  126.9787  141.8402 C   0  0  0  0  0  0  0  0  0  0  0  0
  126.8047  127.8464  140.9125 F   0  0  0  0  0  0  0  0  0  0  0  0
  126.3538  126.1186  142.4365 C   0  0  0  0  0  0  0  0  0  0  0  0
  123.5422  124.2013  143.7407 N   0  0  0  0  0  0  0  0  0  0  0  0
  123.1537  124.9176  142.5754 C   0  0  0  0  0  0  0  0  0  0  0  0
  121.7874  124.6265  142.0818 C   0  0  0  0  0  0  0  0  0  0  0  0
  121.9370  124.9622  140.5959 C   0  0  2  0  0  0  0  0  0  0  0  0
  122.8089  126.2164  140.6904 C   0  0  0  0  0  0  0  0  0  0  0  0
  123.7493  125.8211  141.7940 C   0  0  0  0  0  0  0  0  0  0  0  0
  125.0696  126.4478  141.8276 C   0  0  0  0  0  0  0  0  0  0  0  0
  125.0752  127.5185  141.1723 O   0  0  0  0  0  0  0  0  0  0  0  0
  120.2725  125.3825  140.0007 S   0  0  0  0  0  0  0  0  0  0  0  0
  119.9644  127.1117  140.1338 N   0  0  0  0  0  0  0  0  0  0  0  0
  118.5519  127.4991  139.1912 Cl  0  0  0  0  0  0  0  0  0  0  0  0
  1  2  2  0
  2  3  1  0
  3  4  1  0
  4  5  2  0
  5  6  1  0
  6  7  1  0
  6  8  2  0
  8  9  1  0
  9 10  1  0
  9 11  2  0
  2 12  1  0
 12 13  1  0
 13 14  1  0
 14 15  1  0
 15 16  1  0
 16 17  1  0
 17 18  1  0
 18 19  2  0
 15 20  1  1
 20 21  1  0
 21 22  1  0
 11  4  1  0
 18 11  1  0
 13 17  2  0
M  END
>  <docking_score>  (2) 
-7.1550000000000002

$$$$

     RDKit          3D

 22 24  0  0  0  0  0  0  0  0999 V2000
  136.7981  118.8393  132.1111 O   0  0  0  0  0  0  0  0  0  0  0  0
  137.0133  117.9970  133.0153 C   0  0  0  0  0  0  0  0  0  0  0  0
  136.6324  118.3953  134.3052 N   0  0  0  0  0  0  0  0  0  0  0  0
  136.9679  117.9181  135.6215 C   0  0  0  0  0  0  0  0  0  0  0  0
  136.4364  118.8809  136.4496 C   0  0  0  0  0  0  0  0  0  0  0  0
  136.5967  118.7051  137.8125 C   0  0  0  0  0  0  0  0  0  0  0  0
  135.9173  119.9356  138.8678 Cl  0  0  0  0  0  0  0  0  0  0  0  0
  137.2625  117.6085  138.3175 C   0  0  0  0  0  0  0  0  0  0  0  0
  137.7872  116.6570  137.4860 C   0  0  0  0  0  0  0  0  0  0  0  0
  138.4525  115.5555  137.9104 F   0  0  0  0  0  0  0  0  0  0  0  0
  137.6345  116.8189  136.1088 C   0  0  0  0  0  0  0  0  0  0  0  0
  137.6142  116.8075  132.4644 N   0  0  0  0  0  0  0  0  0  0  0  0
  138.0437  115.5459  132.9601 C   0  0  0  0  0  0  0  0  0  0  0  0
  138.2419  114.4979  131.9316 C   0  0  0  0  0  0  0  0  0  0  0  0
  138.0186  113.2306  132.7607 C   0  0  2  0  0  0  0  0  0  0  0  0
  138.7346  113.6263  134.0540 C   0  0  0  0  0  0  0  0  0  0  0  0
  138.3200  115.0658  134.1745 C   0  0  0  0  0  0  0  0  0  0  0  0
  138.2899  115.6616  135.5091 C   0  0  0  0  0  0  0  0  0  0  0  0
  139.0019  115.0070  136.3092 O   0  0  0  0  0  0  0  0  0  0  0  0
  138.9205  111.9025  131.9097 S   0  0  0  0  0  0  0  0  0  0  0  0
  140.0112  112.5517  130.6885 N   0  0  0  0  0  0  0  0  0  0  0  0
  141.5695  112.8178  131.4195 Cl  0  0  0  0  0  0  0  0  0  0  0  0
  1  2  2  0
  2  3  1  0
  3  4  1  0
  4  5  2  0
  5  6  1  0
  6  7  1  0
  6  8  2  0
  8  9  1  0
  9 10  1  0
  9 11  2  0
  2 12  1  0
 12 13  1  0
 13 14  1  0
 14 15  1  0
 15 16  1  0
 16 17  1  0
 17 18  1  0
 18 19  2  0
 15 20  1  6
 20 21  1  0
 21 22  1  0
 11  4  1  0
 18 11  1  0
 13 17  2  0
M  END
>  <docking_score>  (3) 
-6.907

$$$$
