
     RDKit          3D

 20 22  0  0  0  0  0  0  0  0999 V2000
  121.6046  128.2840  139.7629 O   0  0  0  0  0  0  0  0  0  0  0  0
  121.6463  127.3254  140.5924 C   0  0  0  0  0  0  0  0  0  0  0  0
  120.8102  126.2524  140.1706 N   0  0  0  0  0  0  0  0  0  0  0  0
  120.6698  124.9140  140.6862 C   0  0  0  0  0  0  0  0  0  0  0  0
  120.0261  124.1937  139.6899 C   0  0  0  0  0  0  0  0  0  0  0  0
  119.7384  122.8584  139.8749 C   0  0  0  0  0  0  0  0  0  0  0  0
  118.9196  121.9091  138.6285 Cl  0  0  0  0  0  0  0  0  0  0  0  0
  120.1074  122.2724  141.0672 C   0  0  0  0  0  0  0  0  0  0  0  0
  120.7479  122.9781  142.0653 C   0  0  0  0  0  0  0  0  0  0  0  0
  121.2209  122.2495  143.5807 Cl  0  0  0  0  0  0  0  0  0  0  0  0
  121.0266  124.2975  141.8699 C   0  0  0  0  0  0  0  0  0  0  0  0
  122.4982  127.5582  141.7101 N   0  0  0  0  0  0  0  0  0  0  0  0
  123.2670  126.6753  142.5272 C   0  0  2  0  0  0  0  0  0  0  0  0
  124.0818  125.6624  141.7937 C   0  0  0  0  0  0  0  0  0  0  0  0
  125.1774  125.3190  142.7433 C   0  0  0  0  0  0  0  0  0  0  0  0
  123.9648  125.0806  144.3467 S   0  0  1  0  0  0  0  0  0  0  0  0
  122.5420  125.8971  143.5423 C   0  0  2  0  0  0  0  0  0  0  0  0
  121.6973  124.8019  143.0600 C   0  0  0  0  0  0  0  0  0  0  0  0
  121.4610  123.9970  144.0277 O   0  0  0  0  0  0  0  0  0  0  0  0
  124.1250  123.7315  145.1072 Cl  0  0  0  0  0  0  0  0  0  0  0  0
  1  2  2  0
  2  3  1  0
  3  4  1  0
  4  5  2  0
  5  6  1  0
  6  7  1  0
  6  8  2  0
  8  9  1  0
  9 10  1  0
  9 11  2  0
  2 12  1  0
 12 13  1  0
 13 14  1  6
 14 15  1  0
 15 16  1  0
 16 17  1  0
 17 18  1  6
 18 19  2  0
 16 20  1  6
 11  4  1  0
 18 11  1  0
 17 13  1  0
M  END
>  <docking_score>  (1) 
-7.431

$$$$

     RDKit          3D

 20 22  0  0  0  0  0  0  0  0999 V2000
  136.3656  118.3853  131.9802 O   0  0  0  0  0  0  0  0  0  0  0  0
  136.9319  117.7132  132.8947 C   0  0  0  0  0  0  0  0  0  0  0  0
  136.8047  118.3636  134.1553 N   0  0  0  0  0  0  0  0  0  0  0  0
  137.1291  117.9073  135.4832 C   0  0  0  0  0  0  0  0  0  0  0  0
  136.4615  118.7633  136.3477 C   0  0  0  0  0  0  0  0  0  0  0  0
  136.5677  118.5936  137.7115 C   0  0  0  0  0  0  0  0  0  0  0  0
  135.7319  119.6642  138.8430 Cl  0  0  0  0  0  0  0  0  0  0  0  0
  137.3491  117.5584  138.1794 C   0  0  0  0  0  0  0  0  0  0  0  0
  138.0177  116.7006  137.3299 C   0  0  0  0  0  0  0  0  0  0  0  0
  139.0113  115.3855  137.9080 Cl  0  0  0  0  0  0  0  0  0  0  0  0
  137.9045  116.8793  135.9838 C   0  0  0  0  0  0  0  0  0  0  0  0
  137.5379  116.5064  132.4413 N   0  0  0  0  0  0  0  0  0  0  0  0
  137.7622  115.2497  133.0804 C   0  0  2  0  0  0  0  0  0  0  0  0
  136.5959  114.6852  133.8213 C   0  0  0  0  0  0  0  0  0  0  0  0
  136.8588  113.2189  133.8523 C   0  0  0  0  0  0  0  0  0  0  0  0
  138.7916  113.3895  134.4297 S   0  0  1  0  0  0  0  0  0  0  0  0
  138.8763  115.1718  134.0366 C   0  0  2  0  0  0  0  0  0  0  0  0
  138.6975  115.8538  135.3205 C   0  0  0  0  0  0  0  0  0  0  0  0
  139.5368  115.3834  136.1659 O   0  0  0  0  0  0  0  0  0  0  0  0
  139.1864  112.5586  135.6858 Cl  0  0  0  0  0  0  0  0  0  0  0  0
  1  2  2  0
  2  3  1  0
  3  4  1  0
  4  5  2  0
  5  6  1  0
  6  7  1  0
  6  8  2  0
  8  9  1  0
  9 10  1  0
  9 11  2  0
  2 12  1  0
 12 13  1  0
 13 14  1  1
 14 15  1  0
 15 16  1  0
 16 17  1  0
 17 18  1  1
 18 19  2  0
 16 20  1  1
 11  4  1  0
 18 11  1  0
 17 13  1  0
M  END
>  <docking_score>  (2) 
-7.3129999999999997

$$$$

     RDKit          3D

 20 22  0  0  0  0  0  0  0  0999 V2000
  137.2023  118.1767  138.8137 O   0  0  0  0  0  0  0  0  0  0  0  0
  137.5858  117.7161  137.6960 C   0  0  0  0  0  0  0  0  0  0  0  0
  138.3114  116.5028  137.8690 N   0  0  0  0  0  0  0  0  0  0  0  0
  138.7846  115.5465  136.9003 C   0  0  0  0  0  0  0  0  0  0  0  0
  139.0759  114.3962  137.6198 C   0  0  0  0  0  0  0  0  0  0  0  0
  139.5581  113.2778  136.9746 C   0  0  0  0  0  0  0  0  0  0  0  0
  139.9401  111.7949  137.8581 Cl  0  0  0  0  0  0  0  0  0  0  0  0
  139.7381  113.3413  135.6090 C   0  0  0  0  0  0  0  0  0  0  0  0
  139.4521  114.4792  134.8826 C   0  0  0  0  0  0  0  0  0  0  0  0
  139.6755  114.5747  133.1528 Cl  0  0  0  0  0  0  0  0  0  0  0  0
  138.9760  115.5782  135.5324 C   0  0  0  0  0  0  0  0  0  0  0  0
  137.2036  118.5094  136.5763 N   0  0  0  0  0  0  0  0  0  0  0  0
  136.9066  118.1717  135.2214 C   0  0  2  0  0  0  0  0  0  0  0  0
  135.9913  117.0079  135.0320 C   0  0  0  0  0  0  0  0  0  0  0  0
  135.3851  117.2355  133.6901 C   0  0  0  0  0  0  0  0  0  0  0  0
  137.1352  117.6614  132.7661 S   0  0  1  0  0  0  0  0  0  0  0  0
  138.0448  117.8909  134.3340 C   0  0  2  0  0  0  0  0  0  0  0  0
  138.7577  116.6294  134.5487 C   0  0  0  0  0  0  0  0  0  0  0  0
  139.4321  116.3447  133.4978 O   0  0  0  0  0  0  0  0  0  0  0  0
  137.4269  116.8342  131.4798 Cl  0  0  0  0  0  0  0  0  0  0  0  0
  1  2  2  0
  2  3  1  0
  3  4  1  0
  4  5  2  0
  5  6  1  0
  6  7  1  0
  6  8  2  0
  8  9  1  0
  9 10  1  0
  9 11  2  0
  2 12  1  0
 12 13  1  0
 13 14  1  1
 14 15  1  0
 15 16  1  0
 16 17  1  0
 17 18  1  1
 18 19  2  0
 16 20  1  1
 11  4  1  0
 18 11  1  0
 17 13  1  0
M  END
>  <docking_score>  (3) 
-6.9020000000000001

$$$$
