
     RDKit          3D

 24 26  0  0  0  0  0  0  0  0999 V2000
  134.8408  117.0285  135.5756 O   0  0  0  0  0  0  0  0  0  0  0  0
  136.0228  116.7789  135.8725 C   0  0  0  0  0  0  0  0  0  0  0  0
  136.9970  117.4748  136.6302 N   0  0  0  0  0  0  0  0  0  0  0  0
  136.9907  118.3008  137.7477 C   0  0  0  0  0  0  0  0  0  0  0  0
  138.1516  118.5227  138.4791 C   0  0  0  0  0  0  0  0  0  0  0  0
  138.1906  119.3379  139.5913 C   0  0  0  0  0  0  0  0  0  0  0  0
  137.0246  119.9553  139.9884 C   0  0  0  0  0  0  0  0  0  0  0  0
  137.0322  120.7653  141.0820 F   0  0  0  0  0  0  0  0  0  0  0  0
  135.8360  119.7696  139.2955 C   0  0  0  0  0  0  0  0  0  0  0  0
  134.3481  120.5633  139.8097 Cl  0  0  0  0  0  0  0  0  0  0  0  0
  135.8292  118.9484  138.1879 C   0  0  0  0  0  0  0  0  0  0  0  0
  137.9869  116.9361  135.7223 C   0  0  2  0  0  0  0  0  0  0  0  0
  138.0355  117.7313  134.4813 C   0  0  0  0  0  0  0  0  0  0  0  0
  139.1660  117.7021  133.7086 C   0  0  0  0  0  0  0  0  0  0  0  0
  139.2372  118.4476  132.5243 C   0  0  0  0  0  0  0  0  0  0  0  0
  138.1237  119.1773  132.2195 C   0  0  0  0  0  0  0  0  0  0  0  0
  137.0084  119.1912  133.0022 C   0  0  0  0  0  0  0  0  0  0  0  0
  136.9855  118.4658  134.1220 N   0  0  0  0  0  0  0  0  0  0  0  0
  137.0636  115.7283  135.6614 C   0  0  2  0  0  0  0  0  0  0  0  0
  137.0100  114.9927  134.3680 C   0  0  0  0  0  0  0  0  0  0  0  0
  136.4051  113.6141  134.5348 C   0  0  0  0  0  0  0  0  0  0  0  0
  135.9939  113.0589  133.2577 N   0  0  0  0  0  0  0  0  0  0  0  0
  134.2657  113.0366  133.0871 Cl  0  0  0  0  0  0  0  0  0  0  0  0
  136.6102  113.6761  132.2259 F   0  0  0  0  0  0  0  0  0  0  0  0
  1  2  2  0
  2  3  1  0
  3  4  1  0
  4  5  2  0
  5  6  1  0
  6  7  2  0
  7  8  1  0
  7  9  1  0
  9 10  1  0
  9 11  2  0
  3 12  1  0
 12 13  1  6
 13 14  2  0
 14 15  1  0
 15 16  2  0
 16 17  1  0
 17 18  2  0
 12 19  1  0
 19 20  1  6
 20 21  1  0
 21 22  1  0
 22 23  1  0
 22 24  1  0
 19  2  1  0
 11  4  1  0
 18 13  1  0
M  END
>  <docking_score>  (1) 
-7.1779999999999999

$$$$

     RDKit          3D

 24 26  0  0  0  0  0  0  0  0999 V2000
  138.8208  118.0938  134.5489 O   0  0  0  0  0  0  0  0  0  0  0  0
  137.7184  117.5327  134.6815 C   0  0  0  0  0  0  0  0  0  0  0  0
  136.9300  117.2052  135.8123 N   0  0  0  0  0  0  0  0  0  0  0  0
  136.6835  117.7729  137.0565 C   0  0  0  0  0  0  0  0  0  0  0  0
  135.3870  117.8944  137.5425 C   0  0  0  0  0  0  0  0  0  0  0  0
  135.0982  118.4472  138.7730 C   0  0  0  0  0  0  0  0  0  0  0  0
  136.1452  118.8961  139.5480 C   0  0  0  0  0  0  0  0  0  0  0  0
  135.8911  119.4463  140.7667 F   0  0  0  0  0  0  0  0  0  0  0  0
  137.4600  118.7999  139.1129 C   0  0  0  0  0  0  0  0  0  0  0  0
  138.7943  119.3764  140.1105 Cl  0  0  0  0  0  0  0  0  0  0  0  0
  137.7163  118.2427  137.8779 C   0  0  0  0  0  0  0  0  0  0  0  0
  136.5031  116.0281  135.0867 C   0  0  2  0  0  0  0  0  0  0  0  0
  137.5192  114.9638  135.1866 C   0  0  0  0  0  0  0  0  0  0  0  0
  138.4260  114.9952  136.2125 C   0  0  0  0  0  0  0  0  0  0  0  0
  139.4008  113.9956  136.3306 C   0  0  0  0  0  0  0  0  0  0  0  0
  139.3684  113.0245  135.3708 C   0  0  0  0  0  0  0  0  0  0  0  0
  138.4561  113.0118  134.3586 C   0  0  0  0  0  0  0  0  0  0  0  0
  137.5459  113.9850  134.2854 N   0  0  0  0  0  0  0  0  0  0  0  0
  136.6371  116.9142  133.8571 C   0  0  2  0  0  0  0  0  0  0  0  0
  137.0641  116.2474  132.5962 C   0  0  0  0  0  0  0  0  0  0  0  0
  135.9736  116.2892  131.5459 C   0  0  0  0  0  0  0  0  0  0  0  0
  136.0163  115.1155  130.6921 N   0  0  0  0  0  0  0  0  0  0  0  0
  134.4496  114.7197  130.0558 Cl  0  0  0  0  0  0  0  0  0  0  0  0
  136.9539  115.2369  129.7269 F   0  0  0  0  0  0  0  0  0  0  0  0
  1  2  2  0
  2  3  1  0
  3  4  1  0
  4  5  2  0
  5  6  1  0
  6  7  2  0
  7  8  1  0
  7  9  1  0
  9 10  1  0
  9 11  2  0
  3 12  1  0
 12 13  1  6
 13 14  2  0
 14 15  1  0
 15 16  2  0
 16 17  1  0
 17 18  2  0
 12 19  1  0
 19 20  1  6
 20 21  1  0
 21 22  1  0
 22 23  1  0
 22 24  1  0
 19  2  1  0
 11  4  1  0
 18 13  1  0
M  END
>  <docking_score>  (2) 
-6.9809999999999999

$$$$

     RDKit          3D

 24 26  0  0  0  0  0  0  0  0999 V2000
  137.2720  132.5011  140.2265 O   0  0  0  0  0  0  0  0  0  0  0  0
  138.3886  131.9530  140.2019 C   0  0  0  0  0  0  0  0  0  0  0  0
  139.1703  131.3067  141.1911 N   0  0  0  0  0  0  0  0  0  0  0  0
  138.9166  130.5240  142.3110 C   0  0  0  0  0  0  0  0  0  0  0  0
  137.6201  130.3439  142.7783 C   0  0  0  0  0  0  0  0  0  0  0  0
  137.3235  129.5723  143.8827 C   0  0  0  0  0  0  0  0  0  0  0  0
  138.3625  128.9569  144.5462 C   0  0  0  0  0  0  0  0  0  0  0  0
  138.1007  128.1894  145.6393 F   0  0  0  0  0  0  0  0  0  0  0  0
  139.6770  129.1020  144.1237 C   0  0  0  0  0  0  0  0  0  0  0  0
  141.0010  128.3111  144.9779 Cl  0  0  0  0  0  0  0  0  0  0  0  0
  139.9412  129.8801  143.0165 C   0  0  0  0  0  0  0  0  0  0  0  0
  140.3366  131.8247  140.5085 C   0  0  2  0  0  0  0  0  0  0  0  0
  140.5775  133.2283  140.8919 C   0  0  0  0  0  0  0  0  0  0  0  0
  141.6833  133.8761  140.4089 C   0  0  0  0  0  0  0  0  0  0  0  0
  141.9346  135.2100  140.7570 C   0  0  0  0  0  0  0  0  0  0  0  0
  141.0156  135.7854  141.5874 C   0  0  0  0  0  0  0  0  0  0  0  0
  139.9210  135.1225  142.0558 C   0  0  0  0  0  0  0  0  0  0  0  0
  139.7222  133.8524  141.6981 N   0  0  0  0  0  0  0  0  0  0  0  0
  139.4993  131.6498  139.2502 C   0  0  2  0  0  0  0  0  0  0  0  0
  139.7227  132.6351  138.1565 C   0  0  0  0  0  0  0  0  0  0  0  0
  139.5494  132.0023  136.7913 C   0  0  0  0  0  0  0  0  0  0  0  0
  140.7641  132.1057  136.0025 N   0  0  0  0  0  0  0  0  0  0  0  0
  142.1718  131.6663  136.9198 Cl  0  0  0  0  0  0  0  0  0  0  0  0
  140.6639  131.4190  134.8433 F   0  0  0  0  0  0  0  0  0  0  0  0
  1  2  2  0
  2  3  1  0
  3  4  1  0
  4  5  2  0
  5  6  1  0
  6  7  2  0
  7  8  1  0
  7  9  1  0
  9 10  1  0
  9 11  2  0
  3 12  1  0
 12 13  1  1
 13 14  2  0
 14 15  1  0
 15 16  2  0
 16 17  1  0
 17 18  2  0
 12 19  1  0
 19 20  1  6
 20 21  1  0
 21 22  1  0
 22 23  1  0
 22 24  1  0
 19  2  1  0
 11  4  1  0
 18 13  1  0
M  END
>  <docking_score>  (3) 
-6.7149999999999999

$$$$
