
     RDKit          3D

 20 22  0  0  0  0  0  0  0  0999 V2000
  141.6966  131.6571  138.6065 O   0  0  0  0  0  0  0  0  0  0  0  0
  141.5618  132.2009  137.4828 C   0  0  0  0  0  0  0  0  0  0  0  0
  140.2205  132.6509  137.2864 N   0  0  0  0  0  0  0  0  0  0  0  0
  139.4801  132.8589  136.0776 C   0  0  0  0  0  0  0  0  0  0  0  0
  138.1465  132.5934  136.4039 C   0  0  0  0  0  0  0  0  0  0  0  0
  137.1936  132.7163  135.4151 C   0  0  0  0  0  0  0  0  0  0  0  0
  135.4991  132.4116  135.7022 Cl  0  0  0  0  0  0  0  0  0  0  0  0
  137.5698  133.0918  134.1481 C   0  0  0  0  0  0  0  0  0  0  0  0
  138.8796  133.3493  133.8406 C   0  0  0  0  0  0  0  0  0  0  0  0
  139.2965  133.7567  132.4707 C   0  0  0  0  0  0  0  0  0  0  0  0
  139.8434  133.2348  134.8023 C   0  0  0  0  0  0  0  0  0  0  0  0
  142.7636  132.2247  136.7133 N   0  0  0  0  0  0  0  0  0  0  0  0
  143.2425  133.0073  135.5917 C   0  0  0  0  0  0  0  0  0  0  0  0
  144.6657  133.2771  135.5379 C   0  0  0  0  0  0  0  0  0  0  0  0
  145.1701  133.3910  134.1493 C   0  0  0  0  0  0  0  0  0  0  0  0
  143.6716  134.3859  133.5109 S   0  0  1  0  0  0  0  0  0  0  0  0
  142.5258  133.5173  134.6098 C   0  0  0  0  0  0  0  0  0  0  0  0
  141.1236  133.5652  134.1943 C   0  0  0  0  0  0  0  0  0  0  0  0
  140.9679  133.9921  133.0355 O   0  0  0  0  0  0  0  0  0  0  0  0
  144.0172  136.0583  134.8388 F   0  0  0  0  0  0  0  0  0  0  0  0
  1  2  2  0
  2  3  1  0
  3  4  1  0
  4  5  2  0
  5  6  1  0
  6  7  1  0
  6  8  2  0
  8  9  1  0
  9 10  1  0
  9 11  2  0
  2 12  1  0
 12 13  1  0
 13 14  1  0
 14 15  1  0
 15 16  1  0
 16 17  1  0
 17 18  1  0
 18 19  2  0
 16 20  1  1
 11  4  1  0
 18 11  1  0
 13 17  2  0
M  END
>  <docking_score>  (1) 
-7.9180000000000001

$$$$

     RDKit          3D

 20 22  0  0  0  0  0  0  0  0999 V2000
  121.8096  128.0016  140.0935 O   0  0  0  0  0  0  0  0  0  0  0  0
  121.6392  126.8497  140.5632 C   0  0  0  0  0  0  0  0  0  0  0  0
  122.0465  126.7860  141.9307 N   0  0  0  0  0  0  0  0  0  0  0  0
  122.4989  125.6739  142.7126 C   0  0  0  0  0  0  0  0  0  0  0  0
  123.3929  126.2095  143.6450 C   0  0  0  0  0  0  0  0  0  0  0  0
  123.9928  125.3530  144.5434 C   0  0  0  0  0  0  0  0  0  0  0  0
  125.1247  125.9042  145.7524 Cl  0  0  0  0  0  0  0  0  0  0  0  0
  123.7033  124.0105  144.5038 C   0  0  0  0  0  0  0  0  0  0  0  0
  122.8257  123.4976  143.5856 C   0  0  0  0  0  0  0  0  0  0  0  0
  122.5059  122.0445  143.5351 C   0  0  0  0  0  0  0  0  0  0  0  0
  122.2176  124.3250  142.6840 C   0  0  0  0  0  0  0  0  0  0  0  0
  121.0932  125.9255  139.6224 N   0  0  0  0  0  0  0  0  0  0  0  0
  120.3895  124.6627  139.7222 C   0  0  0  0  0  0  0  0  0  0  0  0
  119.3944  124.3824  138.7062 C   0  0  0  0  0  0  0  0  0  0  0  0
  119.2690  122.9342  138.4183 C   0  0  0  0  0  0  0  0  0  0  0  0
  119.3969  122.3919  140.2438 S   0  0  1  0  0  0  0  0  0  0  0  0
  120.5424  123.7340  140.6453 C   0  0  0  0  0  0  0  0  0  0  0  0
  121.3499  123.5119  141.8451 C   0  0  0  0  0  0  0  0  0  0  0  0
  121.2926  122.3424  142.2674 O   0  0  0  0  0  0  0  0  0  0  0  0
  117.6080  123.4485  140.8465 F   0  0  0  0  0  0  0  0  0  0  0  0
  1  2  2  0
  2  3  1  0
  3  4  1  0
  4  5  2  0
  5  6  1  0
  6  7  1  0
  6  8  2  0
  8  9  1  0
  9 10  1  0
  9 11  2  0
  2 12  1  0
 12 13  1  0
 13 14  1  0
 14 15  1  0
 15 16  1  0
 16 17  1  0
 17 18  1  0
 18 19  2  0
 16 20  1  1
 11  4  1  0
 18 11  1  0
 13 17  2  0
M  END
>  <docking_score>  (2) 
-7.6440000000000001

$$$$

     RDKit          3D

 20 22  0  0  0  0  0  0  0  0999 V2000
  139.2585  133.9155  132.2245 O   0  0  0  0  0  0  0  0  0  0  0  0
  139.9002  133.6589  133.2727 C   0  0  0  0  0  0  0  0  0  0  0  0
  139.1641  132.7800  134.1247 N   0  0  0  0  0  0  0  0  0  0  0  0
  139.2211  132.6026  135.5453 C   0  0  0  0  0  0  0  0  0  0  0  0
  137.9288  132.2308  135.9293 C   0  0  0  0  0  0  0  0  0  0  0  0
  137.6865  131.9905  137.2651 C   0  0  0  0  0  0  0  0  0  0  0  0
  136.1156  131.5207  137.8637 Cl  0  0  0  0  0  0  0  0  0  0  0  0
  138.7057  132.1199  138.1774 C   0  0  0  0  0  0  0  0  0  0  0  0
  139.9676  132.4849  137.7890 C   0  0  0  0  0  0  0  0  0  0  0  0
  141.0780  132.6276  138.7703 C   0  0  0  0  0  0  0  0  0  0  0  0
  140.2342  132.7287  136.4712 C   0  0  0  0  0  0  0  0  0  0  0  0
  141.1728  134.3022  133.3339 N   0  0  0  0  0  0  0  0  0  0  0  0
  142.3967  134.0759  134.0760 C   0  0  0  0  0  0  0  0  0  0  0  0
  143.6403  134.4119  133.4115 C   0  0  0  0  0  0  0  0  0  0  0  0
  144.6898  134.8535  134.3599 C   0  0  0  0  0  0  0  0  0  0  0  0
  144.2799  133.5397  135.6823 S   0  0  1  0  0  0  0  0  0  0  0  0
  142.5130  133.5845  135.2938 C   0  0  0  0  0  0  0  0  0  0  0  0
  141.6389  133.0917  136.3587 C   0  0  0  0  0  0  0  0  0  0  0  0
  142.2255  132.9390  137.4458 O   0  0  0  0  0  0  0  0  0  0  0  0
  144.7420  131.8676  134.3899 F   0  0  0  0  0  0  0  0  0  0  0  0
  1  2  2  0
  2  3  1  0
  3  4  1  0
  4  5  2  0
  5  6  1  0
  6  7  1  0
  6  8  2  0
  8  9  1  0
  9 10  1  0
  9 11  2  0
  2 12  1  0
 12 13  1  0
 13 14  1  0
 14 15  1  0
 15 16  1  0
 16 17  1  0
 17 18  1  0
 18 19  2  0
 16 20  1  6
 11  4  1  0
 18 11  1  0
 13 17  2  0
M  END
>  <docking_score>  (3) 
-6.9649999999999999

$$$$
