
     RDKit          3D

 26 29  0  0  0  0  0  0  0  0999 V2000
  133.4194  127.4705  135.7957 O   0  0  0  0  0  0  0  0  0  0  0  0
  133.6237  128.0089  136.9188 C   0  0  0  0  0  0  0  0  0  0  0  0
  133.2107  129.3119  137.3488 N   0  0  0  0  0  0  0  0  0  0  0  0
  132.8911  130.5521  136.7654 C   0  0  0  0  0  0  0  0  0  0  0  0
  131.9274  130.6649  135.7803 C   0  0  0  0  0  0  0  0  0  0  0  0
  131.6094  131.8797  135.2055 C   0  0  0  0  0  0  0  0  0  0  0  0
  132.2502  133.0343  135.6003 C   0  0  0  0  0  0  0  0  0  0  0  0
  131.9875  134.2512  135.0786 F   0  0  0  0  0  0  0  0  0  0  0  0
  133.2171  132.9406  136.5840 C   0  0  0  0  0  0  0  0  0  0  0  0
  134.0537  134.3881  137.1135 Cl  0  0  0  0  0  0  0  0  0  0  0  0
  133.5224  131.7219  137.1472 C   0  0  0  0  0  0  0  0  0  0  0  0
  133.2536  128.8206  138.7073 C   0  0  1  0  0  0  0  0  0  0  0  0
  131.9224  128.3035  139.1100 C   0  0  0  0  0  0  0  0  0  0  0  0
  131.6441  128.2255  140.4527 C   0  0  0  0  0  0  0  0  0  0  0  0
  130.4571  127.7678  140.9638 C   0  0  0  0  0  0  0  0  0  0  0  0
  129.4894  127.3627  140.0440 C   0  0  0  0  0  0  0  0  0  0  0  0
  129.7845  127.4470  138.6937 C   0  0  0  0  0  0  0  0  0  0  0  0
  130.9751  127.9073  138.2408 N   0  0  0  0  0  0  0  0  0  0  0  0
  134.2348  127.8041  138.2282 C   0  0  1  0  0  0  0  0  0  0  0  0
  134.1766  126.4555  138.8548 C   0  0  2  0  0  0  0  0  0  0  0  0
  134.7534  126.6180  140.2725 C   0  0  0  0  0  0  0  0  0  0  0  0
  135.6688  125.5240  140.4356 N   0  0  0  0  0  0  0  0  0  0  0  0
  136.1960  124.8981  141.9601 Cl  0  0  0  0  0  0  0  0  0  0  0  0
  136.0295  125.0874  139.1579 C   0  0  0  0  0  0  0  0  0  0  0  0
  135.2126  125.5891  138.2309 C   0  0  0  0  0  0  0  0  0  0  0  0
  135.3104  125.2890  136.5034 Cl  0  0  0  0  0  0  0  0  0  0  0  0
  1  2  2  0
  2  3  1  0
  3  4  1  0
  4  5  2  0
  5  6  1  0
  6  7  2  0
  7  8  1  0
  7  9  1  0
  9 10  1  0
  9 11  2  0
  3 12  1  0
 12 13  1  6
 13 14  2  0
 14 15  1  0
 15 16  2  0
 16 17  1  0
 17 18  2  0
 12 19  1  0
 19 20  1  0
 20 21  1  1
 21 22  1  0
 22 23  1  0
 22 24  1  0
 24 25  2  0
 25 26  1  0
 19  2  1  6
 11  4  1  0
 18 13  1  0
 25 20  1  0
M  END
>  <docking_score>  (1) 
-6.5460000000000003

$$$$
