
     RDKit          3D

 29 33  0  0  0  0  0  0  0  0999 V2000
  135.5541  124.1120  141.6217 O   0  0  0  0  0  0  0  0  0  0  0  0
  135.3700  123.8704  140.3822 C   0  0  0  0  0  0  0  0  0  0  0  0
  135.7798  122.6012  139.9259 N   0  0  0  0  0  0  0  0  0  0  0  0
  136.3503  121.6475  140.7930 C   0  0  2  0  0  0  0  0  0  0  0  0
  137.8432  121.3444  140.5006 C   0  0  0  0  0  0  0  0  0  0  0  0
  136.8111  120.3088  140.5091 C   0  0  2  0  0  0  0  0  0  0  0  0
  136.4847  119.4643  139.3729 C   0  0  0  0  0  0  0  0  0  0  0  0
  135.3811  118.6654  139.2178 C   0  0  0  0  0  0  0  0  0  0  0  0
  135.1943  117.9045  138.0631 C   0  0  0  0  0  0  0  0  0  0  0  0
  136.1158  117.9194  137.0224 C   0  0  0  0  0  0  0  0  0  0  0  0
  137.2130  118.7113  137.1738 C   0  0  0  0  0  0  0  0  0  0  0  0
  137.4065  119.4691  138.3124 C   0  0  0  0  0  0  0  0  0  0  0  0
  134.7831  124.8644  139.5665 N   0  0  0  0  0  0  0  0  0  0  0  0
  133.3521  125.0543  139.5262 C   0  0  0  0  0  0  0  0  0  0  0  0
  132.8794  124.8965  138.1122 C   0  0  0  0  0  0  0  0  0  0  0  0
  133.6995  125.7038  137.1647 C   0  0  0  0  0  0  0  0  0  0  0  0
  133.3723  127.1384  137.1216 C   0  0  0  0  0  0  0  0  0  0  0  0
  134.1521  128.1791  136.7822 N   0  0  0  0  0  0  0  0  0  0  0  0
  133.4389  129.3217  136.8836 C   0  0  0  0  0  0  0  0  0  0  0  0
  133.8794  130.6806  136.6095 C   0  0  0  0  0  0  0  0  0  0  0  0
  135.2030  130.9284  136.3144 C   0  0  0  0  0  0  0  0  0  0  0  0
  135.6803  132.2124  136.0461 C   0  0  0  0  0  0  0  0  0  0  0  0
  134.7539  133.2401  136.0911 C   0  0  0  0  0  0  0  0  0  0  0  0
  133.4419  133.0023  136.3835 C   0  0  0  0  0  0  0  0  0  0  0  0
  133.0365  131.7242  136.6357 N   0  0  0  0  0  0  0  0  0  0  0  0
  132.2097  128.9316  137.2943 N   0  0  0  0  0  0  0  0  0  0  0  0
  132.1913  127.6396  137.4287 O   0  0  0  0  0  0  0  0  0  0  0  0
  135.1777  125.4611  137.3019 C   0  0  0  0  0  0  0  0  0  0  0  0
  135.6209  125.7140  138.7530 C   0  0  0  0  0  0  0  0  0  0  0  0
  1  2  2  0
  2  3  1  0
  4  3  1  6
  4  5  1  0
  5  6  1  0
  6  7  1  6
  7  8  2  0
  8  9  1  0
  9 10  2  0
 10 11  1  0
 11 12  2  0
  2 13  1  0
 13 14  1  0
 14 15  1  0
 15 16  1  0
 16 17  1  0
 17 18  2  0
 18 19  1  0
 19 20  1  0
 20 21  2  0
 21 22  1  0
 22 23  2  0
 23 24  1  0
 24 25  2  0
 19 26  2  0
 26 27  1  0
 16 28  1  0
 28 29  1  0
  6  4  1  0
 12  7  1  0
 29 13  1  0
 27 17  1  0
 25 20  1  0
M  END
>  <docking_score>  (1) 
-8.6799999999999997

$$$$

     RDKit          3D

 29 33  0  0  0  0  0  0  0  0999 V2000
  136.1006  121.7650  141.4954 O   0  0  0  0  0  0  0  0  0  0  0  0
  135.8832  121.9743  140.2554 C   0  0  0  0  0  0  0  0  0  0  0  0
  136.1256  120.8903  139.3873 N   0  0  0  0  0  0  0  0  0  0  0  0
  136.5719  119.6411  139.8639 C   0  0  2  0  0  0  0  0  0  0  0  0
  138.0678  119.3538  139.5716 C   0  0  0  0  0  0  0  0  0  0  0  0
  136.9897  118.4731  139.1249 C   0  0  2  0  0  0  0  0  0  0  0  0
  136.7219  118.1406  137.7362 C   0  0  0  0  0  0  0  0  0  0  0  0
  135.5174  117.7966  137.1786 C   0  0  0  0  0  0  0  0  0  0  0  0
  135.4060  117.5031  135.8190 C   0  0  0  0  0  0  0  0  0  0  0  0
  136.5070  117.5435  134.9712 C   0  0  0  0  0  0  0  0  0  0  0  0
  137.7046  117.8843  135.5221 C   0  0  0  0  0  0  0  0  0  0  0  0
  137.8251  118.1776  136.8666 C   0  0  0  0  0  0  0  0  0  0  0  0
  135.4260  123.2460  139.8414 N   0  0  0  0  0  0  0  0  0  0  0  0
  136.3170  124.3807  139.7791 C   0  0  0  0  0  0  0  0  0  0  0  0
  135.7768  125.4728  140.6528 C   0  0  0  0  0  0  0  0  0  0  0  0
  134.3324  125.7269  140.3862 C   0  0  0  0  0  0  0  0  0  0  0  0
  134.0514  126.5360  139.1891 C   0  0  0  0  0  0  0  0  0  0  0  0
  133.0047  127.3387  138.9311 N   0  0  0  0  0  0  0  0  0  0  0  0
  133.1562  127.8884  137.7066 C   0  0  0  0  0  0  0  0  0  0  0  0
  132.2695  128.8190  137.0259 C   0  0  0  0  0  0  0  0  0  0  0  0
  132.7795  129.7011  136.0974 C   0  0  0  0  0  0  0  0  0  0  0  0
  131.9750  130.6168  135.4171 C   0  0  0  0  0  0  0  0  0  0  0  0
  130.6244  130.6009  135.7207 C   0  0  0  0  0  0  0  0  0  0  0  0
  130.1126  129.7309  136.6397 C   0  0  0  0  0  0  0  0  0  0  0  0
  130.9509  128.8588  137.2708 N   0  0  0  0  0  0  0  0  0  0  0  0
  134.3249  127.3891  137.2411 N   0  0  0  0  0  0  0  0  0  0  0  0
  134.8372  126.5933  138.1310 O   0  0  0  0  0  0  0  0  0  0  0  0
  133.4894  124.4822  140.4428 C   0  0  0  0  0  0  0  0  0  0  0  0
  134.0422  123.4267  139.4699 C   0  0  0  0  0  0  0  0  0  0  0  0
  1  2  2  0
  2  3  1  0
  4  3  1  6
  4  5  1  0
  5  6  1  0
  6  7  1  6
  7  8  2  0
  8  9  1  0
  9 10  2  0
 10 11  1  0
 11 12  2  0
  2 13  1  0
 13 14  1  0
 14 15  1  0
 15 16  1  0
 16 17  1  0
 17 18  2  0
 18 19  1  0
 19 20  1  0
 20 21  2  0
 21 22  1  0
 22 23  2  0
 23 24  1  0
 24 25  2  0
 19 26  2  0
 26 27  1  0
 16 28  1  0
 28 29  1  0
  6  4  1  0
 12  7  1  0
 29 13  1  0
 27 17  1  0
 25 20  1  0
M  END
>  <docking_score>  (2) 
-8.5310000000000006

$$$$

     RDKit          3D

 29 33  0  0  0  0  0  0  0  0999 V2000
  131.6082  132.1665  139.6460 O   0  0  0  0  0  0  0  0  0  0  0  0
  131.8864  132.5045  138.4471 C   0  0  0  0  0  0  0  0  0  0  0  0
  130.8020  132.9202  137.6480 N   0  0  0  0  0  0  0  0  0  0  0  0
  129.4854  132.9713  138.1489 C   0  0  2  0  0  0  0  0  0  0  0  0
  128.4752  133.6601  137.1945 C   0  0  0  0  0  0  0  0  0  0  0  0
  128.7057  134.1129  138.5655 C   0  0  2  0  0  0  0  0  0  0  0  0
  129.1719  135.4411  138.9250 C   0  0  0  0  0  0  0  0  0  0  0  0
  130.4013  135.7863  139.4246 C   0  0  0  0  0  0  0  0  0  0  0  0
  130.7150  137.1124  139.7248 C   0  0  0  0  0  0  0  0  0  0  0  0
  129.7983  138.1401  139.5342 C   0  0  0  0  0  0  0  0  0  0  0  0
  128.5765  137.8004  139.0388 C   0  0  0  0  0  0  0  0  0  0  0  0
  128.2567  136.4907  138.7375 C   0  0  0  0  0  0  0  0  0  0  0  0
  133.2282  132.4416  138.0076 N   0  0  0  0  0  0  0  0  0  0  0  0
  133.9565  133.6348  137.6452 C   0  0  0  0  0  0  0  0  0  0  0  0
  134.4365  133.5020  136.2311 C   0  0  0  0  0  0  0  0  0  0  0  0
  135.1152  132.1949  136.0010 C   0  0  0  0  0  0  0  0  0  0  0  0
  136.5026  132.1178  136.4867 C   0  0  0  0  0  0  0  0  0  0  0  0
  137.6370  132.5201  135.8886 N   0  0  0  0  0  0  0  0  0  0  0  0
  138.6852  132.2561  136.6986 C   0  0  0  0  0  0  0  0  0  0  0  0
  140.0940  132.5271  136.4585 C   0  0  0  0  0  0  0  0  0  0  0  0
  140.7953  131.7664  135.5475 C   0  0  0  0  0  0  0  0  0  0  0  0
  142.1485  131.9811  135.2803 C   0  0  0  0  0  0  0  0  0  0  0  0
  142.7639  133.0045  135.9804 C   0  0  0  0  0  0  0  0  0  0  0  0
  142.0760  133.7612  136.8847 C   0  0  0  0  0  0  0  0  0  0  0  0
  140.7539  133.5026  137.1011 N   0  0  0  0  0  0  0  0  0  0  0  0
  138.1423  131.6835  137.7982 N   0  0  0  0  0  0  0  0  0  0  0  0
  136.8533  131.6112  137.6531 O   0  0  0  0  0  0  0  0  0  0  0  0
  134.2928  131.0132  136.4371 C   0  0  0  0  0  0  0  0  0  0  0  0
  133.8956  131.1643  137.9155 C   0  0  0  0  0  0  0  0  0  0  0  0
  1  2  2  0
  2  3  1  0
  4  3  1  6
  4  5  1  0
  5  6  1  0
  6  7  1  6
  7  8  2  0
  8  9  1  0
  9 10  2  0
 10 11  1  0
 11 12  2  0
  2 13  1  0
 13 14  1  0
 14 15  1  0
 15 16  1  0
 16 17  1  0
 17 18  2  0
 18 19  1  0
 19 20  1  0
 20 21  2  0
 21 22  1  0
 22 23  2  0
 23 24  1  0
 24 25  2  0
 19 26  2  0
 26 27  1  0
 16 28  1  0
 28 29  1  0
  6  4  1  0
 12  7  1  0
 29 13  1  0
 27 17  1  0
 25 20  1  0
M  END
>  <docking_score>  (3) 
-7.9560000000000004

$$$$
