
     RDKit          3D

 27 30  0  0  0  0  0  0  0  0999 V2000
  136.1437  124.9871  139.9380 C   0  0  0  0  0  0  0  0  0  0  0  0
  135.6649  125.2629  138.5447 C   0  0  0  0  0  0  0  0  0  0  0  0
  134.7579  124.0753  138.6198 C   0  0  2  0  0  0  0  0  0  0  0  0
  133.3074  124.4883  138.6418 C   0  0  0  0  0  0  0  0  0  0  0  0
  135.3145  123.7383  139.9786 C   0  0  1  0  0  0  0  0  0  0  0  0
  136.1598  122.5620  139.9069 N   0  0  0  0  0  0  0  0  0  0  0  0
  135.7086  121.2307  139.7977 C   0  0  0  0  0  0  0  0  0  0  0  0
  134.4722  121.0232  139.7573 O   0  0  0  0  0  0  0  0  0  0  0  0
  136.5800  120.1171  139.7324 N   0  0  0  0  0  0  0  0  0  0  0  0
  137.7928  120.1652  138.9431 C   0  0  0  0  0  0  0  0  0  0  0  0
  138.1814  118.7080  138.7204 C   0  0  0  0  0  0  0  0  0  0  0  0
  136.9898  117.8948  138.2701 C   0  0  0  0  0  0  0  0  0  0  0  0
  135.9903  117.8181  139.3989 C   0  0  0  0  0  0  0  0  0  0  0  0
  136.3266  118.8713  140.4291 C   0  0  0  0  0  0  0  0  0  0  0  0
  136.3264  118.4027  137.0140 C   0  0  0  0  0  0  0  0  0  0  0  0
  136.5621  117.1460  136.3642 N   0  0  0  0  0  0  0  0  0  0  0  0
  137.3397  117.2057  135.1512 C   0  0  0  0  0  0  0  0  0  0  0  0
  137.0667  118.4452  134.3429 C   0  0  0  0  0  0  0  0  0  0  0  0
  137.0583  115.9600  134.3424 C   0  0  0  0  0  0  0  0  0  0  0  0
  137.2379  116.6519  137.5204 C   0  0  1  0  0  0  0  0  0  0  0  0
  138.6002  116.1616  137.3706 C   0  0  0  0  0  0  0  0  0  0  0  0
  139.0103  115.0184  137.5243 C   0  0  0  0  0  0  0  0  0  0  0  0
  139.2642  113.7336  137.7353 C   0  0  0  0  0  0  0  0  0  0  0  0
  139.6990  113.0599  138.7740 C   0  0  0  0  0  0  0  0  0  0  0  0
  140.1712  112.8689  140.1381 C   0  0  0  0  0  0  0  0  0  0  0  0
  140.0782  111.7753  139.3921 C   0  0  0  0  0  0  0  0  0  0  0  0
  140.2492  110.3743  139.3329 N   0  0  0  0  0  0  0  0  0  0  0  0
  1  2  1  0
  2  3  1  0
  3  4  1  1
  3  5  1  0
  5  6  1  6
  6  7  1  0
  7  8  2  0
  7  9  1  0
  9 10  1  0
 10 11  1  0
 11 12  1  0
 12 13  1  0
 13 14  1  0
 12 15  1  0
 15 16  1  0
 16 17  1  0
 17 18  1  0
 17 19  1  0
 20 16  1  6
 20 21  1  0
 21 22  2  3
 22 23  1  0
 23 24  2  3
 24 25  1  0
 25 26  2  0
 26 27  1  0
  5  1  1  0
 14  9  1  0
 20 12  1  0
 26 24  1  0
M  END
>  <docking_score>  (1) 
-8.2050000000000001

$$$$

     RDKit          3D

 27 30  0  0  0  0  0  0  0  0999 V2000
  128.1749  126.9743  142.8339 C   0  0  0  0  0  0  0  0  0  0  0  0
  128.8637  126.2103  141.7438 C   0  0  0  0  0  0  0  0  0  0  0  0
  130.0534  127.1098  141.8634 C   0  0  2  0  0  0  0  0  0  0  0  0
  131.2478  126.3753  142.4193 C   0  0  0  0  0  0  0  0  0  0  0  0
  129.3210  127.9400  142.8851 C   0  0  1  0  0  0  0  0  0  0  0  0
  128.9353  129.2196  142.3219 N   0  0  0  0  0  0  0  0  0  0  0  0
  129.0434  130.4683  142.9677 C   0  0  0  0  0  0  0  0  0  0  0  0
  129.5114  130.4976  144.1311 O   0  0  0  0  0  0  0  0  0  0  0  0
  128.6497  131.6896  142.3702 N   0  0  0  0  0  0  0  0  0  0  0  0
  127.7713  131.7071  141.2195 C   0  0  0  0  0  0  0  0  0  0  0  0
  127.9707  133.0797  140.5868 C   0  0  0  0  0  0  0  0  0  0  0  0
  129.4408  133.4023  140.4504 C   0  0  0  0  0  0  0  0  0  0  0  0
  130.0395  133.5651  141.8267 C   0  0  0  0  0  0  0  0  0  0  0  0
  129.0912  132.9845  142.8500 C   0  0  0  0  0  0  0  0  0  0  0  0
  130.2291  132.3956  139.6498 C   0  0  0  0  0  0  0  0  0  0  0  0
  130.6220  133.4181  138.7240 N   0  0  0  0  0  0  0  0  0  0  0  0
  130.2525  133.1913  137.3486 C   0  0  0  0  0  0  0  0  0  0  0  0
  129.9523  131.7463  137.0551 C   0  0  0  0  0  0  0  0  0  0  0  0
  131.3674  133.7021  136.4647 C   0  0  0  0  0  0  0  0  0  0  0  0
  129.8468  134.3853  139.4319 C   0  0  1  0  0  0  0  0  0  0  0  0
  128.8291  135.1272  138.7019 C   0  0  0  0  0  0  0  0  0  0  0  0
  128.6042  136.3300  138.7363 C   0  0  0  0  0  0  0  0  0  0  0  0
  128.5119  137.6425  138.9054 C   0  0  0  0  0  0  0  0  0  0  0  0
  129.0335  138.4781  139.7723 C   0  0  0  0  0  0  0  0  0  0  0  0
  129.8378  138.8849  140.9160 C   0  0  0  0  0  0  0  0  0  0  0  0
  129.1954  139.8547  140.2771 C   0  0  0  0  0  0  0  0  0  0  0  0
  128.9240  141.2393  140.2094 N   0  0  0  0  0  0  0  0  0  0  0  0
  1  2  1  0
  2  3  1  0
  3  4  1  1
  3  5  1  0
  5  6  1  6
  6  7  1  0
  7  8  2  0
  7  9  1  0
  9 10  1  0
 10 11  1  0
 11 12  1  0
 12 13  1  0
 13 14  1  0
 12 15  1  0
 15 16  1  0
 16 17  1  0
 17 18  1  0
 17 19  1  0
 20 16  1  6
 20 21  1  0
 21 22  2  3
 22 23  1  0
 23 24  2  3
 24 25  1  0
 25 26  2  0
 26 27  1  0
  5  1  1  0
 14  9  1  0
 20 12  1  0
 26 24  1  0
M  END
>  <docking_score>  (2) 
-7.0190000000000001

$$$$

     RDKit          3D

 27 30  0  0  0  0  0  0  0  0999 V2000
  135.8713  129.5074  145.8252 C   0  0  0  0  0  0  0  0  0  0  0  0
  134.5360  130.1002  146.1596 C   0  0  0  0  0  0  0  0  0  0  0  0
  134.2244  130.2242  144.7014 C   0  0  2  0  0  0  0  0  0  0  0  0
  133.1207  129.2820  144.2901 C   0  0  0  0  0  0  0  0  0  0  0  0
  135.6057  129.7255  144.3655 C   0  0  1  0  0  0  0  0  0  0  0  0
  136.4278  130.8048  143.8531 N   0  0  0  0  0  0  0  0  0  0  0  0
  137.3966  130.6885  142.8354 C   0  0  0  0  0  0  0  0  0  0  0  0
  137.5793  129.5623  142.3140 O   0  0  0  0  0  0  0  0  0  0  0  0
  138.1738  131.7776  142.3732 N   0  0  0  0  0  0  0  0  0  0  0  0
  137.6037  132.7825  141.5007 C   0  0  0  0  0  0  0  0  0  0  0  0
  138.7987  133.4664  140.8463 C   0  0  0  0  0  0  0  0  0  0  0  0
  139.7833  132.4466  140.3221 C   0  0  0  0  0  0  0  0  0  0  0  0
  140.4002  131.7123  141.4881 C   0  0  0  0  0  0  0  0  0  0  0  0
  139.5681  131.9611  142.7249 C   0  0  0  0  0  0  0  0  0  0  0  0
  139.2008  131.4677  139.3330 C   0  0  0  0  0  0  0  0  0  0  0  0
  140.1516  131.8813  138.3421 N   0  0  0  0  0  0  0  0  0  0  0  0
  139.5929  132.3930  137.1150 C   0  0  0  0  0  0  0  0  0  0  0  0
  138.1708  131.9542  136.8931 C   0  0  0  0  0  0  0  0  0  0  0  0
  140.4781  131.9574  135.9697 C   0  0  0  0  0  0  0  0  0  0  0  0
  140.6943  132.8509  139.2381 C   0  0  1  0  0  0  0  0  0  0  0  0
  140.7339  134.2424  138.8129 C   0  0  0  0  0  0  0  0  0  0  0  0
  141.6371  135.0532  138.9727 C   0  0  0  0  0  0  0  0  0  0  0  0
  142.7127  135.7824  139.2390 C   0  0  0  0  0  0  0  0  0  0  0  0
  143.3554  136.0690  140.3465 C   0  0  0  0  0  0  0  0  0  0  0  0
  143.6277  136.0407  141.7766 C   0  0  0  0  0  0  0  0  0  0  0  0
  144.4683  136.7504  141.0344 C   0  0  0  0  0  0  0  0  0  0  0  0
  145.6216  137.5660  141.0181 N   0  0  0  0  0  0  0  0  0  0  0  0
  1  2  1  0
  2  3  1  0
  3  4  1  6
  3  5  1  0
  5  6  1  1
  6  7  1  0
  7  8  2  0
  7  9  1  0
  9 10  1  0
 10 11  1  0
 11 12  1  0
 12 13  1  0
 13 14  1  0
 12 15  1  0
 15 16  1  0
 16 17  1  0
 17 18  1  0
 17 19  1  0
 20 16  1  6
 20 21  1  0
 21 22  2  3
 22 23  1  0
 23 24  2  3
 24 25  1  0
 25 26  2  0
 26 27  1  0
  5  1  1  0
 14  9  1  0
 20 12  1  0
 26 24  1  0
M  END
>  <docking_score>  (3) 
-6.5510000000000002

$$$$
