
     RDKit          3D

 22 23  0  0  0  0  0  0  0  0999 V2000
  135.9852  117.1314  136.3834 O   0  0  0  0  0  0  0  0  0  0  0  0
  136.4274  118.2869  136.1838 C   0  0  0  0  0  0  0  0  0  0  0  0
  137.0645  118.5459  134.9358 N   0  0  0  0  0  0  0  0  0  0  0  0
  137.1837  117.5223  133.9700 C   0  0  0  0  0  0  0  0  0  0  0  0
  138.3310  116.7529  133.9918 C   0  0  0  0  0  0  0  0  0  0  0  0
  138.5076  115.7446  133.0915 C   0  0  0  0  0  0  0  0  0  0  0  0
  139.9547  114.7693  133.1230 Cl  0  0  0  0  0  0  0  0  0  0  0  0
  137.5486  115.4701  132.1388 C   0  0  0  0  0  0  0  0  0  0  0  0
  136.4043  116.2466  132.1249 C   0  0  0  0  0  0  0  0  0  0  0  0
  135.3959  116.0545  131.2189 F   0  0  0  0  0  0  0  0  0  0  0  0
  136.2069  117.2796  133.0381 C   0  0  0  0  0  0  0  0  0  0  0  0
  136.2811  119.2622  137.1852 N   0  0  0  0  0  0  0  0  0  0  0  0
  135.6367  119.0239  138.4869 C   0  0  1  0  0  0  0  0  0  0  0  0
  136.6050  118.2218  139.3685 C   0  0  0  0  0  0  0  0  0  0  0  0
  137.7224  119.2164  139.6626 C   0  0  1  0  0  0  0  0  0  0  0  0
  137.1351  120.5834  139.4227 C   0  0  0  0  0  0  0  0  0  0  0  0
  135.6693  120.3757  139.1761 C   0  0  2  0  0  0  0  0  0  0  0  0
  134.8144  120.4612  140.3971 C   0  0  0  0  0  0  0  0  0  0  0  0
  133.6537  121.4062  140.1189 C   0  0  0  0  0  0  0  0  0  0  0  0
  134.3704  123.0304  139.8614 S   0  0  0  0  0  0  0  0  0  0  0  0
  133.5796  124.1311  140.5523 O   0  0  0  0  0  0  0  0  0  0  0  0
  138.1539  119.1315  140.9674 F   0  0  0  0  0  0  0  0  0  0  0  0
  1  2  2  0
  2  3  1  0
  3  4  1  0
  4  5  2  0
  5  6  1  0
  6  7  1  0
  6  8  2  0
  8  9  1  0
  9 10  1  0
  9 11  2  0
  2 12  1  0
 13 12  1  6
 13 14  1  0
 14 15  1  0
 15 16  1  0
 16 17  1  0
 17 18  1  1
 18 19  1  0
 19 20  1  0
 20 21  2  0
 15 22  1  1
 11  4  1  0
 17 13  1  0
M  END
>  <docking_score>  (1) 
-6.8949999999999996

$$$$

     RDKit          3D

 22 23  0  0  0  0  0  0  0  0999 V2000
  134.2694  123.0928  139.6572 O   0  0  0  0  0  0  0  0  0  0  0  0
  133.3328  122.4175  140.1443 C   0  0  0  0  0  0  0  0  0  0  0  0
  133.5838  121.0435  140.4264 N   0  0  0  0  0  0  0  0  0  0  0  0
  134.8511  120.4806  140.1589 C   0  0  0  0  0  0  0  0  0  0  0  0
  134.9195  119.4828  139.2058 C   0  0  0  0  0  0  0  0  0  0  0  0
  136.1123  118.9006  138.8949 C   0  0  0  0  0  0  0  0  0  0  0  0
  136.1989  117.6439  137.6867 Cl  0  0  0  0  0  0  0  0  0  0  0  0
  137.2761  119.2913  139.5239 C   0  0  0  0  0  0  0  0  0  0  0  0
  137.1967  120.2902  140.4771 C   0  0  0  0  0  0  0  0  0  0  0  0
  138.2937  120.7464  141.1576 F   0  0  0  0  0  0  0  0  0  0  0  0
  135.9868  120.8968  140.8058 C   0  0  0  0  0  0  0  0  0  0  0  0
  132.0928  123.0340  140.3851 N   0  0  0  0  0  0  0  0  0  0  0  0
  131.7995  124.4473  140.0967 C   0  0  1  0  0  0  0  0  0  0  0  0
  130.2781  124.6108  139.9671 C   0  0  0  0  0  0  0  0  0  0  0  0
  129.7760  124.3905  141.3895 C   0  0  1  0  0  0  0  0  0  0  0  0
  130.9591  124.6361  142.2901 C   0  0  0  0  0  0  0  0  0  0  0  0
  132.0568  125.1609  141.4112 C   0  0  2  0  0  0  0  0  0  0  0  0
  132.1078  126.6488  141.3003 C   0  0  0  0  0  0  0  0  0  0  0  0
  132.6351  127.2212  142.6087 C   0  0  0  0  0  0  0  0  0  0  0  0
  134.2605  126.5046  142.8591 S   0  0  0  0  0  0  0  0  0  0  0  0
  134.3743  125.7712  144.1870 O   0  0  0  0  0  0  0  0  0  0  0  0
  128.7667  125.2675  141.7184 F   0  0  0  0  0  0  0  0  0  0  0  0
  1  2  2  0
  2  3  1  0
  3  4  1  0
  4  5  2  0
  5  6  1  0
  6  7  1  0
  6  8  2  0
  8  9  1  0
  9 10  1  0
  9 11  2  0
  2 12  1  0
 13 12  1  1
 13 14  1  0
 14 15  1  0
 15 16  1  0
 16 17  1  0
 17 18  1  6
 18 19  1  0
 19 20  1  0
 20 21  2  0
 15 22  1  1
 11  4  1  0
 17 13  1  0
M  END
>  <docking_score>  (2) 
-6.75

$$$$

     RDKit          3D

 22 23  0  0  0  0  0  0  0  0999 V2000
  135.3278  123.0424  139.6910 O   0  0  0  0  0  0  0  0  0  0  0  0
  134.3020  122.4004  140.0169 C   0  0  0  0  0  0  0  0  0  0  0  0
  134.3689  120.9777  139.9715 N   0  0  0  0  0  0  0  0  0  0  0  0
  135.5592  120.3322  139.5704 C   0  0  0  0  0  0  0  0  0  0  0  0
  136.5212  120.1068  140.5361 C   0  0  0  0  0  0  0  0  0  0  0  0
  137.6911  119.4833  140.2181 C   0  0  0  0  0  0  0  0  0  0  0  0
  138.9036  119.1939  141.4397 Cl  0  0  0  0  0  0  0  0  0  0  0  0
  137.9426  119.0654  138.9279 C   0  0  0  0  0  0  0  0  0  0  0  0
  136.9737  119.2965  137.9685 C   0  0  0  0  0  0  0  0  0  0  0  0
  137.1289  118.9214  136.6609 F   0  0  0  0  0  0  0  0  0  0  0  0
  135.7724  119.9306  138.2763 C   0  0  0  0  0  0  0  0  0  0  0  0
  133.1463  123.1001  140.4043 N   0  0  0  0  0  0  0  0  0  0  0  0
  133.0427  124.5677  140.4529 C   0  0  1  0  0  0  0  0  0  0  0  0
  132.3590  125.0491  139.1648 C   0  0  0  0  0  0  0  0  0  0  0  0
  130.9262  124.5515  139.3173 C   0  0  1  0  0  0  0  0  0  0  0  0
  130.7248  124.3116  140.7915 C   0  0  0  0  0  0  0  0  0  0  0  0
  131.9539  124.8344  141.4760 C   0  0  2  0  0  0  0  0  0  0  0  0
  131.8633  126.2581  141.9164 C   0  0  0  0  0  0  0  0  0  0  0  0
  131.6746  126.2940  143.4266 C   0  0  0  0  0  0  0  0  0  0  0  0
  133.3186  126.3201  144.1442 S   0  0  0  0  0  0  0  0  0  0  0  0
  133.3263  126.8776  145.5596 O   0  0  0  0  0  0  0  0  0  0  0  0
  130.0109  125.4831  138.8810 F   0  0  0  0  0  0  0  0  0  0  0  0
  1  2  2  0
  2  3  1  0
  3  4  1  0
  4  5  2  0
  5  6  1  0
  6  7  1  0
  6  8  2  0
  8  9  1  0
  9 10  1  0
  9 11  2  0
  2 12  1  0
 13 12  1  6
 13 14  1  0
 14 15  1  0
 15 16  1  0
 16 17  1  0
 17 18  1  6
 18 19  1  0
 19 20  1  0
 20 21  2  0
 15 22  1  1
 11  4  1  0
 17 13  1  0
M  END
>  <docking_score>  (3) 
-6.2869999999999999

$$$$
