
     RDKit          3D

 20 22  0  0  0  0  0  0  0  0999 V2000
  139.4803  113.7954  136.7669 O   0  0  0  0  0  0  0  0  0  0  0  0
  138.9333  114.7670  136.1830 C   0  0  0  0  0  0  0  0  0  0  0  0
  138.9029  114.6801  134.7583 N   0  0  0  0  0  0  0  0  0  0  0  0
  138.3368  115.3564  133.6529 C   0  0  0  0  0  0  0  0  0  0  0  0
  138.6448  114.6153  132.5173 C   0  0  0  0  0  0  0  0  0  0  0  0
  138.2323  115.0114  131.2619 C   0  0  0  0  0  0  0  0  0  0  0  0
  138.5951  114.1132  129.8070 Cl  0  0  0  0  0  0  0  0  0  0  0  0
  137.4977  116.1713  131.1418 C   0  0  0  0  0  0  0  0  0  0  0  0
  137.1834  116.9225  132.2778 C   0  0  0  0  0  0  0  0  0  0  0  0
  136.2553  118.3869  132.1209 Cl  0  0  0  0  0  0  0  0  0  0  0  0
  137.5987  116.5211  133.5296 C   0  0  0  0  0  0  0  0  0  0  0  0
  138.4377  115.7898  137.0656 N   0  0  0  0  0  0  0  0  0  0  0  0
  137.6572  116.9739  136.9425 C   0  0  0  0  0  0  0  0  0  0  0  0
  137.3331  117.6293  138.2382 C   0  0  0  0  0  0  0  0  0  0  0  0
  136.0513  118.3807  137.8717 C   0  0  2  0  0  0  0  0  0  0  0  0
  136.3987  118.8498  136.4697 C   0  0  0  0  0  0  0  0  0  0  0  0
  137.1279  117.6652  135.9408 C   0  0  0  0  0  0  0  0  0  0  0  0
  137.1053  117.5234  134.4879 C   0  0  0  0  0  0  0  0  0  0  0  0
  136.5368  118.4628  133.8734 O   0  0  0  0  0  0  0  0  0  0  0  0
  135.7860  119.7218  138.9841 Cl  0  0  0  0  0  0  0  0  0  0  0  0
  1  2  2  0
  2  3  1  0
  3  4  1  0
  4  5  2  0
  5  6  1  0
  6  7  1  0
  6  8  2  0
  8  9  1  0
  9 10  1  0
  9 11  2  0
  2 12  1  0
 12 13  1  0
 13 14  1  0
 14 15  1  0
 15 16  1  0
 16 17  1  0
 17 18  1  0
 18 19  2  0
 15 20  1  1
 11  4  1  0
 18 11  1  0
 13 17  2  0
M  END
>  <docking_score>  (1) 
-7.6180000000000003

$$$$

     RDKit          3D

 20 22  0  0  0  0  0  0  0  0999 V2000
  122.1702  128.0596  139.9959 O   0  0  0  0  0  0  0  0  0  0  0  0
  122.0650  126.8876  140.4422 C   0  0  0  0  0  0  0  0  0  0  0  0
  123.0109  126.5353  141.4518 N   0  0  0  0  0  0  0  0  0  0  0  0
  123.2727  125.4812  142.3575 C   0  0  0  0  0  0  0  0  0  0  0  0
  124.3376  125.8823  143.1567 C   0  0  0  0  0  0  0  0  0  0  0  0
  124.8410  125.0697  144.1513 C   0  0  0  0  0  0  0  0  0  0  0  0
  126.1769  125.5306  145.1799 Cl  0  0  0  0  0  0  0  0  0  0  0  0
  124.2672  123.8323  144.3489 C   0  0  0  0  0  0  0  0  0  0  0  0
  123.1964  123.4208  143.5504 C   0  0  0  0  0  0  0  0  0  0  0  0
  122.4749  121.8570  143.8039 Cl  0  0  0  0  0  0  0  0  0  0  0  0
  122.6980  124.2378  142.5581 C   0  0  0  0  0  0  0  0  0  0  0  0
  121.0047  126.1170  139.8482 N   0  0  0  0  0  0  0  0  0  0  0  0
  120.3969  124.8492  140.0706 C   0  0  0  0  0  0  0  0  0  0  0  0
  119.2211  124.5747  139.2015 C   0  0  0  0  0  0  0  0  0  0  0  0
  118.4534  123.5669  140.0600 C   0  0  2  0  0  0  0  0  0  0  0  0
  119.6048  122.7536  140.6251 C   0  0  0  0  0  0  0  0  0  0  0  0
  120.6143  123.8177  140.8770 C   0  0  0  0  0  0  0  0  0  0  0  0
  121.5904  123.5098  141.9180 C   0  0  0  0  0  0  0  0  0  0  0  0
  121.4933  122.3556  142.4097 O   0  0  0  0  0  0  0  0  0  0  0  0
  117.3750  122.5999  139.0557 Cl  0  0  0  0  0  0  0  0  0  0  0  0
  1  2  2  0
  2  3  1  0
  3  4  1  0
  4  5  2  0
  5  6  1  0
  6  7  1  0
  6  8  2  0
  8  9  1  0
  9 10  1  0
  9 11  2  0
  2 12  1  0
 12 13  1  0
 13 14  1  0
 14 15  1  0
 15 16  1  0
 16 17  1  0
 17 18  1  0
 18 19  2  0
 15 20  1  6
 11  4  1  0
 18 11  1  0
 13 17  2  0
M  END
>  <docking_score>  (2) 
-7.4710000000000001

$$$$

     RDKit          3D

 20 22  0  0  0  0  0  0  0  0999 V2000
  120.8053  121.1679  143.9706 O   0  0  0  0  0  0  0  0  0  0  0  0
  121.0161  122.1838  143.2581 C   0  0  0  0  0  0  0  0  0  0  0  0
  122.1958  122.9192  143.5836 N   0  0  0  0  0  0  0  0  0  0  0  0
  122.9669  123.9913  143.0778 C   0  0  0  0  0  0  0  0  0  0  0  0
  124.0982  124.0965  143.8794 C   0  0  0  0  0  0  0  0  0  0  0  0
  125.0618  125.0560  143.6471 C   0  0  0  0  0  0  0  0  0  0  0  0
  126.4992  125.2265  144.6270 Cl  0  0  0  0  0  0  0  0  0  0  0  0
  124.8889  125.9262  142.5925 C   0  0  0  0  0  0  0  0  0  0  0  0
  123.7548  125.8277  141.7815 C   0  0  0  0  0  0  0  0  0  0  0  0
  123.5409  126.9291  140.4505 Cl  0  0  0  0  0  0  0  0  0  0  0  0
  122.7955  124.8665  142.0190 C   0  0  0  0  0  0  0  0  0  0  0  0
  120.0233  122.4156  142.2426 N   0  0  0  0  0  0  0  0  0  0  0  0
  119.8590  123.2987  141.1384 C   0  0  0  0  0  0  0  0  0  0  0  0
  118.6480  123.0307  140.3169 C   0  0  0  0  0  0  0  0  0  0  0  0
  119.0752  123.6162  138.9690 C   0  0  2  0  0  0  0  0  0  0  0  0
  119.8268  124.8521  139.4318 C   0  0  0  0  0  0  0  0  0  0  0  0
  120.5268  124.3304  140.6371 C   0  0  0  0  0  0  0  0  0  0  0  0
  121.7517  125.0391  140.9957 C   0  0  0  0  0  0  0  0  0  0  0  0
  122.0105  126.0427  140.2822 O   0  0  0  0  0  0  0  0  0  0  0  0
  117.6604  124.0136  137.9958 Cl  0  0  0  0  0  0  0  0  0  0  0  0
  1  2  2  0
  2  3  1  0
  3  4  1  0
  4  5  2  0
  5  6  1  0
  6  7  1  0
  6  8  2  0
  8  9  1  0
  9 10  1  0
  9 11  2  0
  2 12  1  0
 12 13  1  0
 13 14  1  0
 14 15  1  0
 15 16  1  0
 16 17  1  0
 17 18  1  0
 18 19  2  0
 15 20  1  6
 11  4  1  0
 18 11  1  0
 13 17  2  0
M  END
>  <docking_score>  (3) 
-7.3200000000000003

$$$$
