
     RDKit          3D

 20 22  0  0  0  0  0  0  0  0999 V2000
  120.5833  127.9358  140.4784 O   0  0  0  0  0  0  0  0  0  0  0  0
  120.9072  126.7528  140.7488 C   0  0  0  0  0  0  0  0  0  0  0  0
  121.6382  126.6328  141.9732 N   0  0  0  0  0  0  0  0  0  0  0  0
  122.1469  125.5003  142.6872 C   0  0  0  0  0  0  0  0  0  0  0  0
  122.9909  126.0159  143.6695 C   0  0  0  0  0  0  0  0  0  0  0  0
  123.6547  125.1881  144.5463 C   0  0  0  0  0  0  0  0  0  0  0  0
  124.7296  125.8268  145.7990 Cl  0  0  0  0  0  0  0  0  0  0  0  0
  123.4545  123.8291  144.4178 C   0  0  0  0  0  0  0  0  0  0  0  0
  122.6097  123.3055  143.4353 C   0  0  0  0  0  0  0  0  0  0  0  0
  122.4016  121.9864  143.2939 F   0  0  0  0  0  0  0  0  0  0  0  0
  121.9532  124.1519  142.5657 C   0  0  0  0  0  0  0  0  0  0  0  0
  120.4746  125.7803  139.7732 N   0  0  0  0  0  0  0  0  0  0  0  0
  120.6996  124.4175  139.4702 C   0  0  1  0  0  0  0  0  0  0  0  0
  122.0858  124.0592  139.0638 C   0  0  0  0  0  0  0  0  0  0  0  0
  121.8988  122.7640  138.3377 C   0  0  0  0  0  0  0  0  0  0  0  0
  120.7094  121.8874  139.4725 S   0  0  1  0  0  0  0  0  0  0  0  0
  120.2521  123.4457  140.5149 C   0  0  1  0  0  0  0  0  0  0  0  0
  121.1541  123.3277  141.6641 C   0  0  0  0  0  0  0  0  0  0  0  0
  121.2940  122.1100  141.9933 O   0  0  0  0  0  0  0  0  0  0  0  0
  119.1199  121.8567  138.3559 F   0  0  0  0  0  0  0  0  0  0  0  0
  1  2  2  0
  2  3  1  0
  3  4  1  0
  4  5  2  0
  5  6  1  0
  6  7  1  0
  6  8  2  0
  8  9  1  0
  9 10  1  0
  9 11  2  0
  2 12  1  0
 12 13  1  0
 13 14  1  1
 14 15  1  0
 15 16  1  0
 16 17  1  0
 17 18  1  1
 18 19  2  0
 16 20  1  6
 11  4  1  0
 18 11  1  0
 17 13  1  0
M  END
>  <docking_score>  (1) 
-7.8650000000000002

$$$$

     RDKit          3D

 20 22  0  0  0  0  0  0  0  0999 V2000
  135.8291  117.7744  132.0847 O   0  0  0  0  0  0  0  0  0  0  0  0
  136.4970  117.2839  133.0285 C   0  0  0  0  0  0  0  0  0  0  0  0
  136.2671  117.9353  134.2818 N   0  0  0  0  0  0  0  0  0  0  0  0
  136.7534  117.6828  135.6050 C   0  0  0  0  0  0  0  0  0  0  0  0
  136.3933  118.7958  136.3630 C   0  0  0  0  0  0  0  0  0  0  0  0
  136.7112  118.8821  137.6995 C   0  0  0  0  0  0  0  0  0  0  0  0
  136.2614  120.2883  138.6757 Cl  0  0  0  0  0  0  0  0  0  0  0  0
  137.3992  117.8269  138.2620 C   0  0  0  0  0  0  0  0  0  0  0  0
  137.7632  116.7079  137.5079 C   0  0  0  0  0  0  0  0  0  0  0  0
  138.4328  115.6709  138.0366 F   0  0  0  0  0  0  0  0  0  0  0  0
  137.4354  116.6403  136.1694 C   0  0  0  0  0  0  0  0  0  0  0  0
  137.3439  116.1788  132.6459 N   0  0  0  0  0  0  0  0  0  0  0  0
  138.3915  115.4099  133.2036 C   0  0  1  0  0  0  0  0  0  0  0  0
  139.6527  116.1424  133.5001 C   0  0  0  0  0  0  0  0  0  0  0  0
  140.6707  115.0471  133.5617 C   0  0  0  0  0  0  0  0  0  0  0  0
  139.7564  113.7660  134.5586 S   0  0  1  0  0  0  0  0  0  0  0  0
  138.0243  114.6034  134.4080 C   0  0  1  0  0  0  0  0  0  0  0  0
  137.9400  115.3714  135.6535 C   0  0  0  0  0  0  0  0  0  0  0  0
  138.4819  114.7308  136.6057 O   0  0  0  0  0  0  0  0  0  0  0  0
  139.4915  112.3958  133.2071 F   0  0  0  0  0  0  0  0  0  0  0  0
  1  2  2  0
  2  3  1  0
  3  4  1  0
  4  5  2  0
  5  6  1  0
  6  7  1  0
  6  8  2  0
  8  9  1  0
  9 10  1  0
  9 11  2  0
  2 12  1  0
 12 13  1  0
 13 14  1  1
 14 15  1  0
 15 16  1  0
 16 17  1  0
 17 18  1  1
 18 19  2  0
 16 20  1  6
 11  4  1  0
 18 11  1  0
 17 13  1  0
M  END
>  <docking_score>  (2) 
-7.5540000000000003

$$$$

     RDKit          3D

 20 22  0  0  0  0  0  0  0  0999 V2000
  122.0596  127.8334  140.4949 O   0  0  0  0  0  0  0  0  0  0  0  0
  122.3810  126.8519  141.2098 C   0  0  0  0  0  0  0  0  0  0  0  0
  123.7684  126.8384  141.5603 N   0  0  0  0  0  0  0  0  0  0  0  0
  124.5472  125.9658  142.3870 C   0  0  0  0  0  0  0  0  0  0  0  0
  125.8791  126.2965  142.1427 C   0  0  0  0  0  0  0  0  0  0  0  0
  126.9061  125.6406  142.7829 C   0  0  0  0  0  0  0  0  0  0  0  0
  128.6022  126.0483  142.4839 Cl  0  0  0  0  0  0  0  0  0  0  0  0
  126.5695  124.6438  143.6754 C   0  0  0  0  0  0  0  0  0  0  0  0
  125.2362  124.3073  143.9251 C   0  0  0  0  0  0  0  0  0  0  0  0
  124.8880  123.3406  144.7897 F   0  0  0  0  0  0  0  0  0  0  0  0
  124.2209  124.9765  143.2732 C   0  0  0  0  0  0  0  0  0  0  0  0
  121.2893  125.9591  141.5192 N   0  0  0  0  0  0  0  0  0  0  0  0
  121.1029  124.6764  142.0847 C   0  0  1  0  0  0  0  0  0  0  0  0
  121.6865  123.5371  141.3253 C   0  0  0  0  0  0  0  0  0  0  0  0
  120.9175  122.3611  141.8405 C   0  0  0  0  0  0  0  0  0  0  0  0
  120.9093  122.7141  143.6698 S   0  0  1  0  0  0  0  0  0  0  0  0
  121.5099  124.5416  143.5171 C   0  0  1  0  0  0  0  0  0  0  0  0
  122.9542  124.4140  143.7313 C   0  0  0  0  0  0  0  0  0  0  0  0
  123.1953  123.5219  144.6012 O   0  0  0  0  0  0  0  0  0  0  0  0
  119.0234  123.0914  143.9441 F   0  0  0  0  0  0  0  0  0  0  0  0
  1  2  2  0
  2  3  1  0
  3  4  1  0
  4  5  2  0
  5  6  1  0
  6  7  1  0
  6  8  2  0
  8  9  1  0
  9 10  1  0
  9 11  2  0
  2 12  1  0
 12 13  1  0
 13 14  1  6
 14 15  1  0
 15 16  1  0
 16 17  1  0
 17 18  1  6
 18 19  2  0
 16 20  1  6
 11  4  1  0
 18 11  1  0
 17 13  1  0
M  END
>  <docking_score>  (3) 
-7.4619999999999997

$$$$
