
     RDKit          3D

 20 22  0  0  0  0  0  0  0  0999 V2000
  141.8952  131.7820  138.6787 O   0  0  0  0  0  0  0  0  0  0  0  0
  141.6771  132.3649  137.5619 C   0  0  0  0  0  0  0  0  0  0  0  0
  140.3051  132.2159  137.1589 N   0  0  0  0  0  0  0  0  0  0  0  0
  139.5419  132.6766  136.0598 C   0  0  0  0  0  0  0  0  0  0  0  0
  138.2103  132.3707  136.3271 C   0  0  0  0  0  0  0  0  0  0  0  0
  137.2010  132.6904  135.4439 C   0  0  0  0  0  0  0  0  0  0  0  0
  135.5186  132.3115  135.7667 Cl  0  0  0  0  0  0  0  0  0  0  0  0
  137.5638  133.3295  134.2768 C   0  0  0  0  0  0  0  0  0  0  0  0
  138.8880  133.6355  134.0073 C   0  0  0  0  0  0  0  0  0  0  0  0
  139.2593  134.2648  132.8616 F   0  0  0  0  0  0  0  0  0  0  0  0
  139.8999  133.3157  134.8913 C   0  0  0  0  0  0  0  0  0  0  0  0
  142.8401  132.9921  137.0347 N   0  0  0  0  0  0  0  0  0  0  0  0
  143.2578  133.3332  135.6967 C   0  0  0  0  0  0  0  0  0  0  0  0
  144.7198  133.3463  135.4475 C   0  0  0  0  0  0  0  0  0  0  0  0
  144.8562  134.1503  134.1999 C   0  0  2  0  0  0  0  0  0  0  0  0
  143.5452  133.9129  133.4783 C   0  0  0  0  0  0  0  0  0  0  0  0
  142.5977  133.6479  134.5959 C   0  0  0  0  0  0  0  0  0  0  0  0
  141.1558  133.7739  134.3052 C   0  0  0  0  0  0  0  0  0  0  0  0
  140.9329  134.4605  133.2741 O   0  0  0  0  0  0  0  0  0  0  0  0
  145.8716  133.6081  133.4356 F   0  0  0  0  0  0  0  0  0  0  0  0
  1  2  2  0
  2  3  1  0
  3  4  1  0
  4  5  2  0
  5  6  1  0
  6  7  1  0
  6  8  2  0
  8  9  1  0
  9 10  1  0
  9 11  2  0
  2 12  1  0
 12 13  1  0
 13 14  1  0
 14 15  1  0
 15 16  1  0
 16 17  1  0
 17 18  1  0
 18 19  2  0
 15 20  1  6
 11  4  1  0
 18 11  1  0
 13 17  2  0
M  END
>  <docking_score>  (1) 
-7.4130000000000003

$$$$

     RDKit          3D

 20 22  0  0  0  0  0  0  0  0999 V2000
  135.7372  132.2670  137.2029 O   0  0  0  0  0  0  0  0  0  0  0  0
  136.9867  132.2409  136.9339 C   0  0  0  0  0  0  0  0  0  0  0  0
  137.7740  132.1693  138.1349 N   0  0  0  0  0  0  0  0  0  0  0  0
  139.1606  132.0842  138.4045 C   0  0  0  0  0  0  0  0  0  0  0  0
  139.2999  131.8412  139.7683 C   0  0  0  0  0  0  0  0  0  0  0  0
  140.5386  131.7039  140.3580 C   0  0  0  0  0  0  0  0  0  0  0  0
  140.7302  131.3975  142.0748 Cl  0  0  0  0  0  0  0  0  0  0  0  0
  141.6425  131.8174  139.5390 C   0  0  0  0  0  0  0  0  0  0  0  0
  141.5078  132.0591  138.1814 C   0  0  0  0  0  0  0  0  0  0  0  0
  142.5866  132.1732  137.3633 F   0  0  0  0  0  0  0  0  0  0  0  0
  140.2675  132.1969  137.5896 C   0  0  0  0  0  0  0  0  0  0  0  0
  137.2477  132.2892  135.5362 N   0  0  0  0  0  0  0  0  0  0  0  0
  138.3714  132.7478  134.7565 C   0  0  0  0  0  0  0  0  0  0  0  0
  138.0639  133.2641  133.4007 C   0  0  0  0  0  0  0  0  0  0  0  0
  139.3781  133.2136  132.6994 C   0  0  2  0  0  0  0  0  0  0  0  0
  140.3856  133.3825  133.8184 C   0  0  0  0  0  0  0  0  0  0  0  0
  139.6698  132.8147  134.9940 C   0  0  0  0  0  0  0  0  0  0  0  0
  140.4846  132.4405  136.1668 C   0  0  0  0  0  0  0  0  0  0  0  0
  141.6996  132.2859  135.8767 O   0  0  0  0  0  0  0  0  0  0  0  0
  139.4745  134.3110  131.8653 F   0  0  0  0  0  0  0  0  0  0  0  0
  1  2  2  0
  2  3  1  0
  3  4  1  0
  4  5  2  0
  5  6  1  0
  6  7  1  0
  6  8  2  0
  8  9  1  0
  9 10  1  0
  9 11  2  0
  2 12  1  0
 12 13  1  0
 13 14  1  0
 14 15  1  0
 15 16  1  0
 16 17  1  0
 17 18  1  0
 18 19  2  0
 15 20  1  6
 11  4  1  0
 18 11  1  0
 13 17  2  0
M  END
>  <docking_score>  (2) 
-7.1239999999999997

$$$$
