
     RDKit          3D

 29 33  0  0  0  0  0  0  0  0999 V2000
  135.7135  122.5136  139.2658 O   0  0  0  0  0  0  0  0  0  0  0  0
  135.1564  121.8978  140.1791 C   0  0  0  0  0  0  0  0  0  0  0  0
  135.9942  121.0405  140.9682 N   0  0  0  0  0  0  0  0  0  0  0  0
  137.3991  120.9205  140.6941 C   0  0  1  0  0  0  0  0  0  0  0  0
  138.1421  119.6719  140.9618 C   0  0  0  0  0  0  0  0  0  0  0  0
  137.9259  120.1900  139.5225 C   0  0  1  0  0  0  0  0  0  0  0  0
  137.0997  119.2872  138.7212 C   0  0  0  0  0  0  0  0  0  0  0  0
  136.3887  118.2222  139.2298 C   0  0  0  0  0  0  0  0  0  0  0  0
  135.6274  117.4058  138.4305 C   0  0  0  0  0  0  0  0  0  0  0  0
  135.5653  117.6491  137.0801 C   0  0  0  0  0  0  0  0  0  0  0  0
  136.2673  118.7168  136.5116 C   0  0  0  0  0  0  0  0  0  0  0  0
  137.0074  119.4934  137.3593 C   0  0  0  0  0  0  0  0  0  0  0  0
  133.7735  122.0279  140.4348 N   0  0  0  0  0  0  0  0  0  0  0  0
  132.8672  122.8313  139.7130 C   0  0  0  0  0  0  0  0  0  0  0  0
  132.9311  124.2940  139.8493 C   0  0  2  0  0  0  0  0  0  0  0  0
  131.5918  125.0183  139.9491 C   0  0  1  0  0  0  0  0  0  0  0  0
  131.4673  125.8440  141.1958 C   0  0  0  0  0  0  0  0  0  0  0  0
  130.9415  127.0867  141.3233 N   0  0  0  0  0  0  0  0  0  0  0  0
  131.0149  127.4805  142.6035 C   0  0  0  0  0  0  0  0  0  0  0  0
  130.5737  128.7380  143.2021 C   0  0  0  0  0  0  0  0  0  0  0  0
  131.3999  129.4334  144.0568 C   0  0  0  0  0  0  0  0  0  0  0  0
  131.0236  130.6297  144.6483 C   0  0  0  0  0  0  0  0  0  0  0  0
  129.7749  131.1475  144.3734 C   0  0  0  0  0  0  0  0  0  0  0  0
  128.9672  130.4322  143.5148 C   0  0  0  0  0  0  0  0  0  0  0  0
  129.3622  129.2616  142.9492 N   0  0  0  0  0  0  0  0  0  0  0  0
  131.5948  126.4556  143.2528 N   0  0  0  0  0  0  0  0  0  0  0  0
  131.8539  125.4989  142.4023 O   0  0  0  0  0  0  0  0  0  0  0  0
  131.9576  125.9184  138.7879 C   0  0  0  0  0  0  0  0  0  0  0  0
  133.2522  125.1388  138.6540 C   0  0  0  0  0  0  0  0  0  0  0  0
  1  2  2  0
  2  3  1  0
  4  3  1  6
  4  5  1  0
  5  6  1  0
  6  7  1  6
  7  8  2  0
  8  9  1  0
  9 10  2  0
 10 11  1  0
 11 12  2  0
  2 13  1  0
 13 14  1  0
 15 14  1  6
 15 16  1  0
 16 17  1  1
 17 18  2  0
 18 19  1  0
 19 20  1  0
 20 21  2  0
 21 22  1  0
 22 23  2  0
 23 24  1  0
 24 25  2  0
 19 26  2  0
 26 27  1  0
 16 28  1  0
 28 29  1  0
  6  4  1  0
 12  7  1  0
 29 15  1  0
 27 17  1  0
 25 20  1  0
M  END
>  <docking_score>  (1) 
-8.3420000000000005

$$$$

     RDKit          3D

 29 33  0  0  0  0  0  0  0  0999 V2000
  141.6614  132.7706  138.4164 O   0  0  0  0  0  0  0  0  0  0  0  0
  141.4602  133.9870  138.4790 C   0  0  0  0  0  0  0  0  0  0  0  0
  141.3781  134.5483  139.7972 N   0  0  0  0  0  0  0  0  0  0  0  0
  141.5248  133.7240  140.9642 C   0  0  1  0  0  0  0  0  0  0  0  0
  141.5581  134.2978  142.3253 C   0  0  0  0  0  0  0  0  0  0  0  0
  140.3950  133.3947  141.8580 C   0  0  1  0  0  0  0  0  0  0  0  0
  139.1186  134.1074  141.8084 C   0  0  0  0  0  0  0  0  0  0  0  0
  138.9153  135.3790  142.2985 C   0  0  0  0  0  0  0  0  0  0  0  0
  137.6940  136.0017  142.2249 C   0  0  0  0  0  0  0  0  0  0  0  0
  136.6345  135.3461  141.6468 C   0  0  0  0  0  0  0  0  0  0  0  0
  136.7858  134.0540  141.1332 C   0  0  0  0  0  0  0  0  0  0  0  0
  138.0259  133.4874  141.2362 C   0  0  0  0  0  0  0  0  0  0  0  0
  141.3187  134.7826  137.3208 N   0  0  0  0  0  0  0  0  0  0  0  0
  141.3714  134.3264  135.9878 C   0  0  0  0  0  0  0  0  0  0  0  0
  140.1207  134.0071  135.2834 C   0  0  2  0  0  0  0  0  0  0  0  0
  139.6915  132.5430  135.3072 C   0  0  1  0  0  0  0  0  0  0  0  0
  138.3208  132.3470  135.8853 C   0  0  0  0  0  0  0  0  0  0  0  0
  137.1486  132.8656  135.4449 N   0  0  0  0  0  0  0  0  0  0  0  0
  136.1457  132.4531  136.2343 C   0  0  0  0  0  0  0  0  0  0  0  0
  134.7202  132.7594  136.1405 C   0  0  0  0  0  0  0  0  0  0  0  0
  134.2756  134.0584  136.2479 C   0  0  0  0  0  0  0  0  0  0  0  0
  132.9333  134.3961  136.1657 C   0  0  0  0  0  0  0  0  0  0  0  0
  132.0035  133.3963  135.9688 C   0  0  0  0  0  0  0  0  0  0  0  0
  132.4744  132.1045  135.8646 C   0  0  0  0  0  0  0  0  0  0  0  0
  133.7965  131.8025  135.9491 N   0  0  0  0  0  0  0  0  0  0  0  0
  136.7281  131.6744  137.1631 N   0  0  0  0  0  0  0  0  0  0  0  0
  138.0137  131.6251  136.9383 O   0  0  0  0  0  0  0  0  0  0  0  0
  139.6057  132.5121  133.7959 C   0  0  0  0  0  0  0  0  0  0  0  0
  140.1057  133.9444  133.7863 C   0  0  0  0  0  0  0  0  0  0  0  0
  1  2  2  0
  2  3  1  0
  4  3  1  6
  4  5  1  0
  5  6  1  0
  6  7  1  6
  7  8  2  0
  8  9  1  0
  9 10  2  0
 10 11  1  0
 11 12  2  0
  2 13  1  0
 13 14  1  0
 15 14  1  1
 15 16  1  0
 16 17  1  1
 17 18  2  0
 18 19  1  0
 19 20  1  0
 20 21  2  0
 21 22  1  0
 22 23  2  0
 23 24  1  0
 24 25  2  0
 19 26  2  0
 26 27  1  0
 16 28  1  0
 28 29  1  0
  6  4  1  0
 12  7  1  0
 29 15  1  0
 27 17  1  0
 25 20  1  0
M  END
>  <docking_score>  (2) 
-8.2289999999999992

$$$$

     RDKit          3D

 29 33  0  0  0  0  0  0  0  0999 V2000
  128.6613  124.7646  143.1492 O   0  0  0  0  0  0  0  0  0  0  0  0
  128.1920  125.9054  143.1972 C   0  0  0  0  0  0  0  0  0  0  0  0
  126.8577  126.0202  143.7129 N   0  0  0  0  0  0  0  0  0  0  0  0
  126.1274  124.8608  144.1436 C   0  0  1  0  0  0  0  0  0  0  0  0
  124.9459  124.9661  145.0246 C   0  0  0  0  0  0  0  0  0  0  0  0
  124.8233  124.4762  143.5645 C   0  0  1  0  0  0  0  0  0  0  0  0
  124.0323  125.3844  142.7344 C   0  0  0  0  0  0  0  0  0  0  0  0
  124.5143  126.0504  141.6287 C   0  0  0  0  0  0  0  0  0  0  0  0
  123.7260  126.8923  140.8840 C   0  0  0  0  0  0  0  0  0  0  0  0
  122.4142  127.0841  141.2432 C   0  0  0  0  0  0  0  0  0  0  0  0
  121.8738  126.4327  142.3567 C   0  0  0  0  0  0  0  0  0  0  0  0
  122.7088  125.6074  143.0576 C   0  0  0  0  0  0  0  0  0  0  0  0
  128.9246  127.0346  142.7696 N   0  0  0  0  0  0  0  0  0  0  0  0
  130.2310  127.0254  142.2394 C   0  0  0  0  0  0  0  0  0  0  0  0
  130.4576  127.5046  140.8679 C   0  0  2  0  0  0  0  0  0  0  0  0
  129.2671  128.1706  140.1840 C   0  0  1  0  0  0  0  0  0  0  0  0
  129.5662  129.5667  139.7227 C   0  0  0  0  0  0  0  0  0  0  0  0
  130.2892  129.9505  138.6424 N   0  0  0  0  0  0  0  0  0  0  0  0
  130.3249  131.2897  138.5737 C   0  0  0  0  0  0  0  0  0  0  0  0
  130.9832  132.1393  137.5841 C   0  0  0  0  0  0  0  0  0  0  0  0
  131.3727  131.6234  136.3680 C   0  0  0  0  0  0  0  0  0  0  0  0
  132.0007  132.3914  135.3992 C   0  0  0  0  0  0  0  0  0  0  0  0
  132.2470  133.7236  135.6584 C   0  0  0  0  0  0  0  0  0  0  0  0
  131.8473  134.2155  136.8829 C   0  0  0  0  0  0  0  0  0  0  0  0
  131.2335  133.4394  137.8142 N   0  0  0  0  0  0  0  0  0  0  0  0
  129.6111  131.7142  139.6313 N   0  0  0  0  0  0  0  0  0  0  0  0
  129.1718  130.6798  140.2969 O   0  0  0  0  0  0  0  0  0  0  0  0
  129.3732  127.2223  139.0085 C   0  0  0  0  0  0  0  0  0  0  0  0
  130.5066  126.5239  139.7360 C   0  0  0  0  0  0  0  0  0  0  0  0
  1  2  2  0
  2  3  1  0
  4  3  1  6
  4  5  1  0
  5  6  1  0
  6  7  1  6
  7  8  2  0
  8  9  1  0
  9 10  2  0
 10 11  1  0
 11 12  2  0
  2 13  1  0
 13 14  1  0
 15 14  1  1
 15 16  1  0
 16 17  1  6
 17 18  2  0
 18 19  1  0
 19 20  1  0
 20 21  2  0
 21 22  1  0
 22 23  2  0
 23 24  1  0
 24 25  2  0
 19 26  2  0
 26 27  1  0
 16 28  1  0
 28 29  1  0
  6  4  1  0
 12  7  1  0
 29 15  1  0
 27 17  1  0
 25 20  1  0
M  END
>  <docking_score>  (3) 
-7.8719999999999999

$$$$
