
     RDKit          3D

 23 25  0  0  0  0  0  0  0  0999 V2000
  138.8928  113.5894  136.5773 O   0  0  0  0  0  0  0  0  0  0  0  0
  138.8361  114.4577  135.6852 C   0  0  0  0  0  0  0  0  0  0  0  0
  138.4947  115.8305  135.6615 N   0  0  0  0  0  0  0  0  0  0  0  0
  137.6579  116.6976  136.4439 C   0  0  0  0  0  0  0  0  0  0  0  0
  136.3539  116.9051  136.0503 C   0  0  0  0  0  0  0  0  0  0  0  0
  135.4895  117.7219  136.7470 C   0  0  0  0  0  0  0  0  0  0  0  0
  135.9721  118.3437  137.8778 C   0  0  0  0  0  0  0  0  0  0  0  0
  135.1425  119.1524  138.5814 F   0  0  0  0  0  0  0  0  0  0  0  0
  137.2667  118.1614  138.3020 C   0  0  0  0  0  0  0  0  0  0  0  0
  137.8146  118.9848  139.7504 Cl  0  0  0  0  0  0  0  0  0  0  0  0
  138.1122  117.3256  137.5686 C   0  0  0  0  0  0  0  0  0  0  0  0
  139.3583  115.9771  134.5045 C   0  0  2  0  0  0  0  0  0  0  0  0
  138.8045  116.8210  133.4205 C   0  0  0  0  0  0  0  0  0  0  0  0
  139.0616  118.1721  133.3163 C   0  0  0  0  0  0  0  0  0  0  0  0
  138.5232  118.9283  132.2872 C   0  0  0  0  0  0  0  0  0  0  0  0
  137.7120  118.3247  131.3429 C   0  0  0  0  0  0  0  0  0  0  0  0
  137.4760  116.9827  131.4737 C   0  0  0  0  0  0  0  0  0  0  0  0
  138.0140  116.2592  132.4908 N   0  0  0  0  0  0  0  0  0  0  0  0
  139.0825  114.5273  134.2345 C   0  0  1  0  0  0  0  0  0  0  0  0
  140.3159  113.7163  133.8744 C   0  0  0  0  0  0  0  0  0  0  0  0
  140.3662  113.4379  132.4093 C   0  0  0  0  0  0  0  0  0  0  0  0
  141.3240  112.7241  131.8977 N   0  0  0  0  0  0  0  0  0  0  0  0
  141.3002  112.4553  130.1989 Cl  0  0  0  0  0  0  0  0  0  0  0  0
  1  2  2  0
  2  3  1  0
  3  4  1  0
  4  5  2  0
  5  6  1  0
  6  7  2  0
  7  8  1  0
  7  9  1  0
  9 10  1  0
  9 11  2  0
  3 12  1  0
 12 13  1  6
 13 14  2  0
 14 15  1  0
 15 16  2  0
 16 17  1  0
 17 18  2  0
 12 19  1  0
 19 20  1  1
 20 21  1  0
 21 22  2  3
 22 23  1  0
 19  2  1  0
 11  4  1  0
 18 13  1  0
M  END
>  <docking_score>  (1) 
-7.5919999999999996

$$$$

     RDKit          3D

 23 25  0  0  0  0  0  0  0  0999 V2000
  140.2321  113.6691  134.5486 O   0  0  0  0  0  0  0  0  0  0  0  0
  139.5130  114.4808  135.1626 C   0  0  0  0  0  0  0  0  0  0  0  0
  138.6348  115.5182  134.7699 N   0  0  0  0  0  0  0  0  0  0  0  0
  138.5187  116.3969  133.6391 C   0  0  0  0  0  0  0  0  0  0  0  0
  137.7455  116.0101  132.5662 C   0  0  0  0  0  0  0  0  0  0  0  0
  137.5846  116.7964  131.4458 C   0  0  0  0  0  0  0  0  0  0  0  0
  138.2324  118.0122  131.4219 C   0  0  0  0  0  0  0  0  0  0  0  0
  138.0908  118.8049  130.3315 F   0  0  0  0  0  0  0  0  0  0  0  0
  139.0122  118.4326  132.4727 C   0  0  0  0  0  0  0  0  0  0  0  0
  139.8085  119.9922  132.3747 Cl  0  0  0  0  0  0  0  0  0  0  0  0
  139.1505  117.6069  133.5909 C   0  0  0  0  0  0  0  0  0  0  0  0
  137.9055  115.3049  136.0063 C   0  0  2  0  0  0  0  0  0  0  0  0
  137.4936  116.5445  136.7047 C   0  0  0  0  0  0  0  0  0  0  0  0
  138.2712  117.1584  137.6643 C   0  0  0  0  0  0  0  0  0  0  0  0
  137.8498  118.3174  138.2966 C   0  0  0  0  0  0  0  0  0  0  0  0
  136.6280  118.8755  137.9650 C   0  0  0  0  0  0  0  0  0  0  0  0
  135.8799  118.2429  137.0091 C   0  0  0  0  0  0  0  0  0  0  0  0
  136.3118  117.1066  136.4010 N   0  0  0  0  0  0  0  0  0  0  0  0
  139.1978  114.7901  136.5680 C   0  0  1  0  0  0  0  0  0  0  0  0
  139.0602  113.5054  137.3677 C   0  0  0  0  0  0  0  0  0  0  0  0
  140.3011  113.2228  138.1468 C   0  0  0  0  0  0  0  0  0  0  0  0
  140.6459  113.9746  139.1492 N   0  0  0  0  0  0  0  0  0  0  0  0
  142.0925  113.5726  139.9886 Cl  0  0  0  0  0  0  0  0  0  0  0  0
  1  2  2  0
  2  3  1  0
  3  4  1  0
  4  5  2  0
  5  6  1  0
  6  7  2  0
  7  8  1  0
  7  9  1  0
  9 10  1  0
  9 11  2  0
  3 12  1  0
 12 13  1  1
 13 14  2  0
 14 15  1  0
 15 16  2  0
 16 17  1  0
 17 18  2  0
 12 19  1  0
 19 20  1  1
 20 21  1  0
 21 22  2  3
 22 23  1  0
 19  2  1  0
 11  4  1  0
 18 13  1  0
M  END
>  <docking_score>  (2) 
-7.3819999999999997

$$$$

     RDKit          3D

 23 25  0  0  0  0  0  0  0  0999 V2000
  139.5888  113.7970  135.0642 O   0  0  0  0  0  0  0  0  0  0  0  0
  139.0278  114.7264  135.6762 C   0  0  0  0  0  0  0  0  0  0  0  0
  138.2363  115.8320  135.2855 N   0  0  0  0  0  0  0  0  0  0  0  0
  138.1087  116.6421  134.1059 C   0  0  0  0  0  0  0  0  0  0  0  0
  137.0643  116.4045  133.2391 C   0  0  0  0  0  0  0  0  0  0  0  0
  136.8741  117.1377  132.0877 C   0  0  0  0  0  0  0  0  0  0  0  0
  137.7771  118.1420  131.8150 C   0  0  0  0  0  0  0  0  0  0  0  0
  137.6128  118.8782  130.6887 F   0  0  0  0  0  0  0  0  0  0  0  0
  138.8314  118.4091  132.6553 C   0  0  0  0  0  0  0  0  0  0  0  0
  139.9432  119.7023  132.2460 Cl  0  0  0  0  0  0  0  0  0  0  0  0
  138.9903  117.6436  133.8129 C   0  0  0  0  0  0  0  0  0  0  0  0
  137.6120  115.7878  136.5949 C   0  0  2  0  0  0  0  0  0  0  0  0
  137.4107  117.1104  137.2306 C   0  0  0  0  0  0  0  0  0  0  0  0
  136.3943  117.9697  136.8686 C   0  0  0  0  0  0  0  0  0  0  0  0
  136.2398  119.2003  137.4869 C   0  0  0  0  0  0  0  0  0  0  0  0
  137.1168  119.5817  138.4867 C   0  0  0  0  0  0  0  0  0  0  0  0
  138.1145  118.7070  138.8233 C   0  0  0  0  0  0  0  0  0  0  0  0
  138.2485  117.5044  138.2042 N   0  0  0  0  0  0  0  0  0  0  0  0
  138.8878  115.1622  137.0764 C   0  0  1  0  0  0  0  0  0  0  0  0
  138.6870  113.9580  137.9810 C   0  0  0  0  0  0  0  0  0  0  0  0
  139.9304  113.6477  138.7453 C   0  0  0  0  0  0  0  0  0  0  0  0
  140.8818  114.5257  138.8577 N   0  0  0  0  0  0  0  0  0  0  0  0
  142.2784  114.0796  139.7573 Cl  0  0  0  0  0  0  0  0  0  0  0  0
  1  2  2  0
  2  3  1  0
  3  4  1  0
  4  5  2  0
  5  6  1  0
  6  7  2  0
  7  8  1  0
  7  9  1  0
  9 10  1  0
  9 11  2  0
  3 12  1  0
 12 13  1  1
 13 14  2  0
 14 15  1  0
 15 16  2  0
 16 17  1  0
 17 18  2  0
 12 19  1  0
 19 20  1  1
 20 21  1  0
 21 22  2  3
 22 23  1  0
 19  2  1  0
 11  4  1  0
 18 13  1  0
M  END
>  <docking_score>  (3) 
-7.2190000000000003

$$$$
