
     RDKit          3D

 20 21  0  0  0  0  0  0  0  0999 V2000
  136.9272  117.6472  131.6052 O   0  0  0  0  0  0  0  0  0  0  0  0
  136.5903  117.3512  132.8069 C   0  0  0  0  0  0  0  0  0  0  0  0
  137.0959  118.1604  133.8176 N   0  0  0  0  0  0  0  0  0  0  0  0
  137.2507  117.8938  135.1963 C   0  0  0  0  0  0  0  0  0  0  0  0
  136.7145  118.8149  136.1051 C   0  0  0  0  0  0  0  0  0  0  0  0
  136.7905  118.6864  137.4521 C   0  0  0  0  0  0  0  0  0  0  0  0
  136.0866  119.8956  138.5278 Cl  0  0  0  0  0  0  0  0  0  0  0  0
  137.4271  117.5953  137.9935 C   0  0  0  0  0  0  0  0  0  0  0  0
  137.9710  116.6613  137.1264 C   0  0  0  0  0  0  0  0  0  0  0  0
  138.7656  115.2969  137.8783 Cl  0  0  0  0  0  0  0  0  0  0  0  0
  137.8894  116.7992  135.7341 C   0  0  0  0  0  0  0  0  0  0  0  0
  135.7455  116.2381  132.9579 N   0  0  0  0  0  0  0  0  0  0  0  0
  135.8593  115.2082  133.9576 C   0  0  0  0  0  0  0  0  0  0  0  0
  136.0470  113.8924  133.1900 C   0  0  0  0  0  0  0  0  0  0  0  0
  137.4974  113.5437  133.1917 C   0  0  0  0  0  0  0  0  0  0  0  0
  138.4624  114.7892  132.5361 S   0  0  1  0  0  0  0  0  0  0  0  0
  138.9241  115.8465  133.5402 C   0  0  0  0  0  0  0  0  0  0  0  0
  138.5131  115.7333  134.9640 C   0  0  0  0  0  0  0  0  0  0  0  0
  138.7499  114.5946  135.4957 O   0  0  0  0  0  0  0  0  0  0  0  0
  139.5348  114.3069  131.1660 F   0  0  0  0  0  0  0  0  0  0  0  0
  1  2  2  0
  2  3  1  0
  3  4  1  0
  4  5  2  0
  5  6  1  0
  6  7  1  0
  6  8  2  0
  8  9  1  0
  9 10  1  0
  9 11  2  0
  2 12  1  0
 12 13  1  0
 13 14  1  0
 14 15  1  0
 15 16  1  0
 16 17  1  0
 17 18  1  0
 18 19  2  0
 16 20  1  1
 11  4  1  0
 18 11  1  0
M  END
>  <docking_score>  (1) 
-6.9409999999999998

$$$$

     RDKit          3D

 20 21  0  0  0  0  0  0  0  0999 V2000
  121.5040  123.4506  137.7903 O   0  0  0  0  0  0  0  0  0  0  0  0
  121.3807  123.6857  139.0452 C   0  0  0  0  0  0  0  0  0  0  0  0
  121.4155  122.5868  139.8956 N   0  0  0  0  0  0  0  0  0  0  0  0
  120.9298  122.4497  141.2151 C   0  0  0  0  0  0  0  0  0  0  0  0
  121.8113  121.9644  142.1896 C   0  0  0  0  0  0  0  0  0  0  0  0
  121.4802  121.7818  143.4911 C   0  0  0  0  0  0  0  0  0  0  0  0
  122.6536  121.1646  144.6559 Cl  0  0  0  0  0  0  0  0  0  0  0  0
  120.2076  122.0820  143.9147 C   0  0  0  0  0  0  0  0  0  0  0  0
  119.3062  122.5648  142.9796 C   0  0  0  0  0  0  0  0  0  0  0  0
  117.7054  122.9283  143.5827 Cl  0  0  0  0  0  0  0  0  0  0  0  0
  119.6540  122.7516  141.6349 C   0  0  0  0  0  0  0  0  0  0  0  0
  121.2245  125.0337  139.4113 N   0  0  0  0  0  0  0  0  0  0  0  0
  120.3085  125.5517  140.3939 C   0  0  0  0  0  0  0  0  0  0  0  0
  119.3951  126.5320  139.6455 C   0  0  0  0  0  0  0  0  0  0  0  0
  118.1066  125.8442  139.3422 C   0  0  0  0  0  0  0  0  0  0  0  0
  118.3355  124.4055  138.4534 S   0  0  1  0  0  0  0  0  0  0  0  0
  118.5701  123.1529  139.2993 C   0  0  0  0  0  0  0  0  0  0  0  0
  118.5922  123.2635  140.7812 C   0  0  0  0  0  0  0  0  0  0  0  0
  117.5795  123.8610  141.2839 O   0  0  0  0  0  0  0  0  0  0  0  0
  117.4247  124.2950  136.8984 F   0  0  0  0  0  0  0  0  0  0  0  0
  1  2  2  0
  2  3  1  0
  3  4  1  0
  4  5  2  0
  5  6  1  0
  6  7  1  0
  6  8  2  0
  8  9  1  0
  9 10  1  0
  9 11  2  0
  2 12  1  0
 12 13  1  0
 13 14  1  0
 14 15  1  0
 15 16  1  0
 16 17  1  0
 17 18  1  0
 18 19  2  0
 16 20  1  1
 11  4  1  0
 18 11  1  0
M  END
>  <docking_score>  (2) 
-6.4829999999999997

$$$$
