
     RDKit          3D

 24 26  0  0  0  0  0  0  0  0999 V2000
  133.6486  127.4005  140.7349 O   0  0  0  0  0  0  0  0  0  0  0  0
  132.8423  126.6134  140.1776 C   0  0  0  0  0  0  0  0  0  0  0  0
  132.7341  126.1904  138.8159 N   0  0  0  0  0  0  0  0  0  0  0  0
  133.1102  126.7753  137.5789 C   0  0  0  0  0  0  0  0  0  0  0  0
  134.1103  126.1922  136.8391 C   0  0  0  0  0  0  0  0  0  0  0  0
  134.4961  126.7370  135.6348 C   0  0  0  0  0  0  0  0  0  0  0  0
  133.8943  127.8753  135.1397 C   0  0  0  0  0  0  0  0  0  0  0  0
  134.3004  128.3825  133.9517 F   0  0  0  0  0  0  0  0  0  0  0  0
  132.8801  128.4698  135.8863 C   0  0  0  0  0  0  0  0  0  0  0  0
  132.1103  129.9231  135.2559 Cl  0  0  0  0  0  0  0  0  0  0  0  0
  132.5099  127.9093  137.0871 C   0  0  0  0  0  0  0  0  0  0  0  0
  132.1137  124.9885  139.2702 C   0  0  1  0  0  0  0  0  0  0  0  0
  133.0927  123.8951  139.5998 C   0  0  0  0  0  0  0  0  0  0  0  0
  132.6785  122.6209  139.8516 C   0  0  0  0  0  0  0  0  0  0  0  0
  133.5728  121.6199  140.1537 C   0  0  0  0  0  0  0  0  0  0  0  0
  134.9280  121.9108  140.2041 C   0  0  0  0  0  0  0  0  0  0  0  0
  135.3259  123.2168  139.9437 C   0  0  0  0  0  0  0  0  0  0  0  0
  134.4107  124.1554  139.6538 N   0  0  0  0  0  0  0  0  0  0  0  0
  131.6848  125.7599  140.4992 C   0  0  1  0  0  0  0  0  0  0  0  0
  131.8116  124.9085  141.7195 C   0  0  0  0  0  0  0  0  0  0  0  0
  130.5123  124.4644  142.3056 C   0  0  0  0  0  0  0  0  0  0  0  0
  130.1504  125.1385  143.5188 N   0  0  0  0  0  0  0  0  0  0  0  0
  128.8725  126.2591  143.4003 Cl  0  0  0  0  0  0  0  0  0  0  0  0
  131.1900  125.5335  144.2481 F   0  0  0  0  0  0  0  0  0  0  0  0
  1  2  2  0
  2  3  1  0
  3  4  1  0
  4  5  2  0
  5  6  1  0
  6  7  2  0
  7  8  1  0
  7  9  1  0
  9 10  1  0
  9 11  2  0
  3 12  1  0
 12 13  1  1
 13 14  2  0
 14 15  1  0
 15 16  2  0
 16 17  1  0
 17 18  2  0
 12 19  1  0
 19 20  1  1
 20 21  1  0
 21 22  1  0
 22 23  1  0
 22 24  1  0
 19  2  1  0
 11  4  1  0
 18 13  1  0
M  END
>  <docking_score>  (1) 
-6.8570000000000002

$$$$

     RDKit          3D

 24 26  0  0  0  0  0  0  0  0999 V2000
  136.1639  114.1375  134.2220 O   0  0  0  0  0  0  0  0  0  0  0  0
  137.1272  114.8102  134.6691 C   0  0  0  0  0  0  0  0  0  0  0  0
  138.5361  114.6843  134.4603 N   0  0  0  0  0  0  0  0  0  0  0  0
  139.3788  113.5955  134.1169 C   0  0  0  0  0  0  0  0  0  0  0  0
  139.4857  112.5328  134.9810 C   0  0  0  0  0  0  0  0  0  0  0  0
  140.2952  111.4620  134.6742 C   0  0  0  0  0  0  0  0  0  0  0  0
  141.0170  111.4253  133.4993 C   0  0  0  0  0  0  0  0  0  0  0  0
  141.8029  110.3556  133.2315 F   0  0  0  0  0  0  0  0  0  0  0  0
  140.9118  112.5003  132.6202 C   0  0  0  0  0  0  0  0  0  0  0  0
  141.8324  112.4553  131.1194 Cl  0  0  0  0  0  0  0  0  0  0  0  0
  140.0974  113.5603  132.9461 C   0  0  0  0  0  0  0  0  0  0  0  0
  138.6718  116.0764  134.7419 C   0  0  1  0  0  0  0  0  0  0  0  0
  138.5050  116.9529  133.5308 C   0  0  0  0  0  0  0  0  0  0  0  0
  139.0457  118.2033  133.4773 C   0  0  0  0  0  0  0  0  0  0  0  0
  138.8936  119.0063  132.3704 C   0  0  0  0  0  0  0  0  0  0  0  0
  138.1740  118.5356  131.2822 C   0  0  0  0  0  0  0  0  0  0  0  0
  137.6325  117.2579  131.3603 C   0  0  0  0  0  0  0  0  0  0  0  0
  137.8114  116.5162  132.4651 N   0  0  0  0  0  0  0  0  0  0  0  0
  137.3945  115.9645  135.5454 C   0  0  1  0  0  0  0  0  0  0  0  0
  136.5368  117.1681  135.3312 C   0  0  0  0  0  0  0  0  0  0  0  0
  135.8068  117.6357  136.5467 C   0  0  0  0  0  0  0  0  0  0  0  0
  136.3671  118.8056  137.1587 N   0  0  0  0  0  0  0  0  0  0  0  0
  137.9711  118.6641  137.7157 Cl  0  0  0  0  0  0  0  0  0  0  0  0
  135.5325  119.4393  137.9775 F   0  0  0  0  0  0  0  0  0  0  0  0
  1  2  2  0
  2  3  1  0
  3  4  1  0
  4  5  2  0
  5  6  1  0
  6  7  2  0
  7  8  1  0
  7  9  1  0
  9 10  1  0
  9 11  2  0
  3 12  1  0
 12 13  1  6
 13 14  2  0
 14 15  1  0
 15 16  2  0
 16 17  1  0
 17 18  2  0
 12 19  1  0
 19 20  1  6
 20 21  1  0
 21 22  1  0
 22 23  1  0
 22 24  1  0
 19  2  1  0
 11  4  1  0
 18 13  1  0
M  END
>  <docking_score>  (2) 
-6.5629999999999997

$$$$

     RDKit          3D

 24 26  0  0  0  0  0  0  0  0999 V2000
  120.5111  126.9043  141.5938 O   0  0  0  0  0  0  0  0  0  0  0  0
  120.9352  125.7970  141.1761 C   0  0  0  0  0  0  0  0  0  0  0  0
  122.1898  125.1393  141.3707 N   0  0  0  0  0  0  0  0  0  0  0  0
  123.5012  125.6018  141.6537 C   0  0  0  0  0  0  0  0  0  0  0  0
  123.9681  126.7243  141.0138 C   0  0  0  0  0  0  0  0  0  0  0  0
  125.2361  127.1967  141.2688 C   0  0  0  0  0  0  0  0  0  0  0  0
  126.0682  126.5618  142.1673 C   0  0  0  0  0  0  0  0  0  0  0  0
  127.3089  127.0553  142.3923 F   0  0  0  0  0  0  0  0  0  0  0  0
  125.5991  125.4235  142.8184 C   0  0  0  0  0  0  0  0  0  0  0  0
  126.6598  124.6114  143.9661 Cl  0  0  0  0  0  0  0  0  0  0  0  0
  124.3290  124.9681  142.5490 C   0  0  0  0  0  0  0  0  0  0  0  0
  121.5336  123.8901  141.1594 C   0  0  1  0  0  0  0  0  0  0  0  0
  120.9543  123.2966  142.4143 C   0  0  0  0  0  0  0  0  0  0  0  0
  120.7958  124.0402  143.5460 C   0  0  0  0  0  0  0  0  0  0  0  0
  120.2665  123.4985  144.6947 C   0  0  0  0  0  0  0  0  0  0  0  0
  119.8846  122.1652  144.7049 C   0  0  0  0  0  0  0  0  0  0  0  0
  120.0558  121.4277  143.5394 C   0  0  0  0  0  0  0  0  0  0  0  0
  120.5774  122.0064  142.4459 N   0  0  0  0  0  0  0  0  0  0  0  0
  120.4999  124.6510  140.3582 C   0  0  1  0  0  0  0  0  0  0  0  0
  119.1313  124.1228  140.6380 C   0  0  0  0  0  0  0  0  0  0  0  0
  118.3049  123.8622  139.4222 C   0  0  0  0  0  0  0  0  0  0  0  0
  119.0655  123.6598  138.2232 N   0  0  0  0  0  0  0  0  0  0  0  0
  118.5506  124.5323  136.8534 Cl  0  0  0  0  0  0  0  0  0  0  0  0
  119.3956  122.3909  138.0006 F   0  0  0  0  0  0  0  0  0  0  0  0
  1  2  2  0
  2  3  1  0
  3  4  1  0
  4  5  2  0
  5  6  1  0
  6  7  2  0
  7  8  1  0
  7  9  1  0
  9 10  1  0
  9 11  2  0
  3 12  1  0
 12 13  1  1
 13 14  2  0
 14 15  1  0
 15 16  2  0
 16 17  1  0
 17 18  2  0
 12 19  1  0
 19 20  1  1
 20 21  1  0
 21 22  1  0
 22 23  1  0
 22 24  1  0
 19  2  1  0
 11  4  1  0
 18 13  1  0
M  END
>  <docking_score>  (3) 
-5.0460000000000003

$$$$
