
     RDKit          3D

 11 11  0  0  0  0  0  0  0  0999 V2000
  141.5064  122.9028  167.0140 O   0  0  0  0  0  0  0  0  0  0  0  0
  141.1433  122.6068  165.8692 C   0  0  0  0  0  0  0  0  0  0  0  0
  141.5850  121.4500  165.1671 N   0  0  0  0  0  0  0  0  0  0  0  0
  141.4644  121.4459  163.7341 C   0  0  0  0  0  0  0  0  0  0  0  0
  142.2319  120.7813  162.8486 C   0  0  0  0  0  0  0  0  0  0  0  0
  143.3750  119.9038  163.1576 C   0  0  0  0  0  0  0  0  0  0  0  0
  143.8268  119.1514  162.1673 C   0  0  0  0  0  0  0  0  0  0  0  0
  143.2265  119.2331  160.9647 F   0  0  0  0  0  0  0  0  0  0  0  0
  142.1235  120.3602  165.9495 C   0  0  0  0  0  0  0  0  0  0  0  0
  143.5174  120.0075  165.6096 C   0  0  0  0  0  0  0  0  0  0  0  0
  144.0011  119.8254  164.4283 N   0  0  0  0  0  0  0  0  0  0  0  0
  1  2  2  0
  2  3  1  0
  3  4  1  0
  4  5  2  0
  5  6  1  0
  6  7  2  3
  7  8  1  0
  3  9  1  0
  9 10  1  0
 10 11  2  0
 11  6  1  0
M  END
>  <docking_score>  (1) 
-1.212

$$$$

     RDKit          3D

 11 11  0  0  0  0  0  0  0  0999 V2000
  144.1479  119.2319  165.3926 O   0  0  0  0  0  0  0  0  0  0  0  0
  143.3977  119.8307  166.1728 C   0  0  0  0  0  0  0  0  0  0  0  0
  142.2305  120.5390  165.7704 N   0  0  0  0  0  0  0  0  0  0  0  0
  141.1931  119.8012  165.1015 C   0  0  0  0  0  0  0  0  0  0  0  0
  139.8717  120.0637  165.0985 C   0  0  0  0  0  0  0  0  0  0  0  0
  139.1929  121.1758  165.7872 C   0  0  0  0  0  0  0  0  0  0  0  0
  137.9336  121.4001  165.4481 C   0  0  0  0  0  0  0  0  0  0  0  0
  137.3636  120.6146  164.5146 F   0  0  0  0  0  0  0  0  0  0  0  0
  142.1741  121.9532  166.0644 C   0  0  0  0  0  0  0  0  0  0  0  0
  141.0352  122.3445  166.9202 C   0  0  0  0  0  0  0  0  0  0  0  0
  139.8023  121.9976  166.7701 N   0  0  0  0  0  0  0  0  0  0  0  0
  1  2  2  0
  2  3  1  0
  3  4  1  0
  4  5  2  0
  5  6  1  0
  6  7  2  3
  7  8  1  0
  3  9  1  0
  9 10  1  0
 10 11  2  0
 11  6  1  0
M  END
>  <docking_score>  (2) 
-1.1319999999999999

$$$$
