
     RDKit          3D

 29 33  0  0  0  0  0  0  0  0999 V2000
  139.7329  115.7779  137.6397 O   0  0  0  0  0  0  0  0  0  0  0  0
  138.7038  115.5572  136.9173 C   0  0  0  0  0  0  0  0  0  0  0  0
  138.4938  114.2923  136.3031 N   0  0  0  0  0  0  0  0  0  0  0  0
  139.4724  113.2378  136.5053 C   0  0  2  0  0  0  0  0  0  0  0  0
  139.0446  111.8256  136.4361 C   0  0  0  0  0  0  0  0  0  0  0  0
  139.1119  112.4156  137.7853 C   0  0  1  0  0  0  0  0  0  0  0  0
  140.1944  112.1339  138.7313 C   0  0  0  0  0  0  0  0  0  0  0  0
  140.2917  112.8945  139.8733 C   0  0  0  0  0  0  0  0  0  0  0  0
  141.2925  112.6796  140.8080 C   0  0  0  0  0  0  0  0  0  0  0  0
  142.2151  111.6693  140.5769 C   0  0  0  0  0  0  0  0  0  0  0  0
  142.1431  110.8915  139.4429 C   0  0  0  0  0  0  0  0  0  0  0  0
  141.1331  111.1472  138.5521 C   0  0  0  0  0  0  0  0  0  0  0  0
  137.7865  116.6307  136.7599 N   0  0  0  0  0  0  0  0  0  0  0  0
  138.0482  117.8979  137.4058 C   0  0  0  0  0  0  0  0  0  0  0  0
  136.7473  118.6071  137.7053 C   0  0  2  0  0  0  0  0  0  0  0  0
  136.4659  118.7101  139.1655 C   0  0  1  0  0  0  0  0  0  0  0  0
  136.5460  120.0804  139.7370 C   0  0  0  0  0  0  0  0  0  0  0  0
  135.7522  121.1310  139.4633 N   0  0  0  0  0  0  0  0  0  0  0  0
  136.1370  122.2039  140.1787 C   0  0  0  0  0  0  0  0  0  0  0  0
  135.5164  123.5340  140.1529 C   0  0  0  0  0  0  0  0  0  0  0  0
  136.2063  124.6424  140.5422 C   0  0  0  0  0  0  0  0  0  0  0  0
  135.6198  125.9075  140.5199 C   0  0  0  0  0  0  0  0  0  0  0  0
  134.3029  125.9903  140.0840 C   0  0  0  0  0  0  0  0  0  0  0  0
  133.6100  124.8661  139.6916 C   0  0  0  0  0  0  0  0  0  0  0  0
  134.2451  123.6815  139.7416 N   0  0  0  0  0  0  0  0  0  0  0  0
  137.1882  121.7791  140.8970 N   0  0  0  0  0  0  0  0  0  0  0  0
  137.4227  120.5151  140.6268 O   0  0  0  0  0  0  0  0  0  0  0  0
  135.0418  118.2331  138.9089 C   0  0  0  0  0  0  0  0  0  0  0  0
  135.5494  117.6644  137.5906 C   0  0  0  0  0  0  0  0  0  0  0  0
  1  2  2  0
  2  3  1  0
  4  3  1  6
  4  5  1  0
  5  6  1  0
  6  7  1  1
  7  8  2  0
  8  9  1  0
  9 10  2  0
 10 11  1  0
 11 12  2  0
  2 13  1  0
 13 14  1  0
 15 14  1  1
 15 16  1  0
 16 17  1  6
 17 18  2  0
 18 19  1  0
 19 20  1  0
 20 21  2  0
 21 22  1  0
 22 23  2  0
 23 24  1  0
 24 25  2  0
 19 26  2  0
 26 27  1  0
 16 28  1  0
 28 29  1  0
  6  4  1  0
 12  7  1  0
 29 15  1  0
 27 17  1  0
 25 20  1  0
M  END
>  <docking_score>  (1) 
-7.9749999999999996

$$$$

     RDKit          3D

 29 33  0  0  0  0  0  0  0  0999 V2000
  131.4203  126.3358  138.6132 O   0  0  0  0  0  0  0  0  0  0  0  0
  132.6087  126.4951  138.1751 C   0  0  0  0  0  0  0  0  0  0  0  0
  133.6346  125.5572  138.4735 N   0  0  0  0  0  0  0  0  0  0  0  0
  133.3172  124.4001  139.2927 C   0  0  2  0  0  0  0  0  0  0  0  0
  133.5337  124.4612  140.7526 C   0  0  0  0  0  0  0  0  0  0  0  0
  134.6181  123.8500  139.9632 C   0  0  1  0  0  0  0  0  0  0  0  0
  134.8483  122.4046  139.9000 C   0  0  0  0  0  0  0  0  0  0  0  0
  133.8023  121.5539  140.1727 C   0  0  0  0  0  0  0  0  0  0  0  0
  133.9541  120.1768  140.1309 C   0  0  0  0  0  0  0  0  0  0  0  0
  135.1967  119.6524  139.8048 C   0  0  0  0  0  0  0  0  0  0  0  0
  136.2623  120.4788  139.5269 C   0  0  0  0  0  0  0  0  0  0  0  0
  136.0564  121.8328  139.5828 C   0  0  0  0  0  0  0  0  0  0  0  0
  132.8520  127.6476  137.3805 N   0  0  0  0  0  0  0  0  0  0  0  0
  131.7730  128.5709  137.1075 C   0  0  0  0  0  0  0  0  0  0  0  0
  132.3010  129.9863  137.0537 C   0  0  2  0  0  0  0  0  0  0  0  0
  131.2865  130.9657  136.5706 C   0  0  1  0  0  0  0  0  0  0  0  0
  130.7869  131.9248  137.5910 C   0  0  0  0  0  0  0  0  0  0  0  0
  130.6513  133.2572  137.4675 N   0  0  0  0  0  0  0  0  0  0  0  0
  130.1672  133.7834  138.6075 C   0  0  0  0  0  0  0  0  0  0  0  0
  129.8836  135.2017  138.8586 C   0  0  0  0  0  0  0  0  0  0  0  0
  128.6216  135.7009  138.7397 C   0  0  0  0  0  0  0  0  0  0  0  0
  128.3485  137.0479  138.9767 C   0  0  0  0  0  0  0  0  0  0  0  0
  129.4170  137.8591  139.3390 C   0  0  0  0  0  0  0  0  0  0  0  0
  130.6911  137.3489  139.4576 C   0  0  0  0  0  0  0  0  0  0  0  0
  130.8738  136.0391  139.2125 N   0  0  0  0  0  0  0  0  0  0  0  0
  130.0109  132.7350  139.4308 N   0  0  0  0  0  0  0  0  0  0  0  0
  130.3822  131.6349  138.8163 O   0  0  0  0  0  0  0  0  0  0  0  0
  132.3283  131.5569  135.6290 C   0  0  0  0  0  0  0  0  0  0  0  0
  133.0918  130.2469  135.7717 C   0  0  0  0  0  0  0  0  0  0  0  0
  1  2  2  0
  2  3  1  0
  4  3  1  6
  4  5  1  0
  5  6  1  0
  6  7  1  1
  7  8  2  0
  8  9  1  0
  9 10  2  0
 10 11  1  0
 11 12  2  0
  2 13  1  0
 13 14  1  0
 15 14  1  6
 15 16  1  0
 16 17  1  1
 17 18  2  0
 18 19  1  0
 19 20  1  0
 20 21  2  0
 21 22  1  0
 22 23  2  0
 23 24  1  0
 24 25  2  0
 19 26  2  0
 26 27  1  0
 16 28  1  0
 28 29  1  0
  6  4  1  0
 12  7  1  0
 29 15  1  0
 27 17  1  0
 25 20  1  0
M  END
>  <docking_score>  (2) 
-7.9480000000000004

$$$$

     RDKit          3D

 29 33  0  0  0  0  0  0  0  0999 V2000
  137.4099  117.5801  132.5822 O   0  0  0  0  0  0  0  0  0  0  0  0
  136.3955  116.9553  133.0405 C   0  0  0  0  0  0  0  0  0  0  0  0
  135.9400  117.1678  134.3705 N   0  0  0  0  0  0  0  0  0  0  0  0
  136.6471  118.1134  135.2167 C   0  0  2  0  0  0  0  0  0  0  0  0
  138.0003  117.7803  135.7067 C   0  0  0  0  0  0  0  0  0  0  0  0
  136.8882  117.4870  136.6287 C   0  0  1  0  0  0  0  0  0  0  0  0
  136.5731  118.3152  137.7952 C   0  0  0  0  0  0  0  0  0  0  0  0
  137.5145  119.2110  138.2464 C   0  0  0  0  0  0  0  0  0  0  0  0
  137.2791  120.0231  139.3447 C   0  0  0  0  0  0  0  0  0  0  0  0
  136.0598  119.9227  139.9993 C   0  0  0  0  0  0  0  0  0  0  0  0
  135.0981  119.0353  139.5709 C   0  0  0  0  0  0  0  0  0  0  0  0
  135.3835  118.2565  138.4796 C   0  0  0  0  0  0  0  0  0  0  0  0
  135.7500  116.0447  132.1614 N   0  0  0  0  0  0  0  0  0  0  0  0
  136.2547  115.8652  130.8181 C   0  0  0  0  0  0  0  0  0  0  0  0
  136.8811  114.4967  130.6767 C   0  0  2  0  0  0  0  0  0  0  0  0
  138.3010  114.4594  131.1287 C   0  0  1  0  0  0  0  0  0  0  0  0
  138.5555  113.6881  132.3742 C   0  0  0  0  0  0  0  0  0  0  0  0
  138.8048  114.1739  133.6034 N   0  0  0  0  0  0  0  0  0  0  0  0
  138.9838  113.1646  134.4752 C   0  0  0  0  0  0  0  0  0  0  0  0
  139.2745  113.2950  135.9081 C   0  0  0  0  0  0  0  0  0  0  0  0
  139.8508  112.2772  136.6069 C   0  0  0  0  0  0  0  0  0  0  0  0
  140.1278  112.3971  137.9685 C   0  0  0  0  0  0  0  0  0  0  0  0
  139.7915  113.5975  138.5824 C   0  0  0  0  0  0  0  0  0  0  0  0
  139.2089  114.6233  137.8710 C   0  0  0  0  0  0  0  0  0  0  0  0
  138.9735  114.4310  136.5608 N   0  0  0  0  0  0  0  0  0  0  0  0
  138.8369  112.0487  133.7440 N   0  0  0  0  0  0  0  0  0  0  0  0
  138.5825  112.3715  132.4964 O   0  0  0  0  0  0  0  0  0  0  0  0
  138.6707  113.7099  129.8548 C   0  0  0  0  0  0  0  0  0  0  0  0
  137.3788  114.2466  129.2531 C   0  0  0  0  0  0  0  0  0  0  0  0
  1  2  2  0
  2  3  1  0
  4  3  1  6
  4  5  1  0
  5  6  1  0
  6  7  1  1
  7  8  2  0
  8  9  1  0
  9 10  2  0
 10 11  1  0
 11 12  2  0
  2 13  1  0
 13 14  1  0
 15 14  1  6
 15 16  1  0
 16 17  1  1
 17 18  2  0
 18 19  1  0
 19 20  1  0
 20 21  2  0
 21 22  1  0
 22 23  2  0
 23 24  1  0
 24 25  2  0
 19 26  2  0
 26 27  1  0
 16 28  1  0
 28 29  1  0
  6  4  1  0
 12  7  1  0
 29 15  1  0
 27 17  1  0
 25 20  1  0
M  END
>  <docking_score>  (3) 
-7.9089999999999998

$$$$
