
     RDKit          3D

 11 11  0  0  0  0  0  0  0  0999 V2000
  127.0746  124.8941  144.2221 O   0  0  0  0  0  0  0  0  0  0  0  0
  125.9830  124.3115  144.2849 C   0  0  0  0  0  0  0  0  0  0  0  0
  124.8483  124.6872  143.5148 N   0  0  0  0  0  0  0  0  0  0  0  0
  125.0864  125.6625  142.5105 C   0  0  0  0  0  0  0  0  0  0  0  0
  124.1762  126.4817  141.9546 C   0  0  0  0  0  0  0  0  0  0  0  0
  122.7468  126.5480  142.2608 C   0  0  0  0  0  0  0  0  0  0  0  0
  121.9403  127.2248  141.4837 C   0  0  0  0  0  0  0  0  0  0  0  0
  122.3109  127.8966  140.3803 F   0  0  0  0  0  0  0  0  0  0  0  0
  123.6209  124.0323  143.8538 C   0  0  0  0  0  0  0  0  0  0  0  0
  122.4585  124.9005  144.0237 C   0  0  0  0  0  0  0  0  0  0  0  0
  122.1103  125.9276  143.3661 N   0  0  0  0  0  0  0  0  0  0  0  0
  1  2  2  0
  2  3  1  0
  3  4  1  0
  4  5  2  0
  5  6  1  0
  6  7  2  3
  7  8  1  0
  3  9  1  0
  9 10  1  0
 10 11  2  0
 11  6  1  0
M  END
>  <docking_score>  (1) 
-4.4589999999999996

$$$$

     RDKit          3D

 11 11  0  0  0  0  0  0  0  0999 V2000
  121.4047  127.6641  140.1227 O   0  0  0  0  0  0  0  0  0  0  0  0
  120.5733  126.7458  140.1386 C   0  0  0  0  0  0  0  0  0  0  0  0
  120.6779  125.6080  140.9850 N   0  0  0  0  0  0  0  0  0  0  0  0
  121.6336  125.7091  142.0304 C   0  0  0  0  0  0  0  0  0  0  0  0
  122.2271  124.6904  142.6774 C   0  0  0  0  0  0  0  0  0  0  0  0
  122.0195  123.2602  142.4476 C   0  0  0  0  0  0  0  0  0  0  0  0
  122.4841  122.3845  143.3018 C   0  0  0  0  0  0  0  0  0  0  0  0
  123.1649  122.6812  144.4219 F   0  0  0  0  0  0  0  0  0  0  0  0
  119.8065  124.5159  140.6711 C   0  0  0  0  0  0  0  0  0  0  0  0
  120.4309  123.1968  140.6098 C   0  0  0  0  0  0  0  0  0  0  0  0
  121.3358  122.6930  141.3419 N   0  0  0  0  0  0  0  0  0  0  0  0
  1  2  2  0
  2  3  1  0
  3  4  1  0
  4  5  2  0
  5  6  1  0
  6  7  2  3
  7  8  1  0
  3  9  1  0
  9 10  1  0
 10 11  2  0
 11  6  1  0
M  END
>  <docking_score>  (2) 
-3.8279999999999998

$$$$

     RDKit          3D

 11 11  0  0  0  0  0  0  0  0999 V2000
  143.8296  118.8747  167.1771 O   0  0  0  0  0  0  0  0  0  0  0  0
  143.5418  119.4711  166.1301 C   0  0  0  0  0  0  0  0  0  0  0  0
  142.8255  118.8721  165.0579 N   0  0  0  0  0  0  0  0  0  0  0  0
  143.6211  118.3876  163.9860 C   0  0  0  0  0  0  0  0  0  0  0  0
  143.2215  118.1816  162.7185 C   0  0  0  0  0  0  0  0  0  0  0  0
  141.8853  118.4102  162.1675 C   0  0  0  0  0  0  0  0  0  0  0  0
  141.5770  117.9494  160.9822 C   0  0  0  0  0  0  0  0  0  0  0  0
  142.4038  117.2543  160.1824 F   0  0  0  0  0  0  0  0  0  0  0  0
  141.4014  118.8366  165.2030 C   0  0  0  0  0  0  0  0  0  0  0  0
  140.6295  119.2946  164.0506 C   0  0  0  0  0  0  0  0  0  0  0  0
  140.8365  119.1143  162.8123 N   0  0  0  0  0  0  0  0  0  0  0  0
  1  2  2  0
  2  3  1  0
  3  4  1  0
  4  5  2  0
  5  6  1  0
  6  7  2  3
  7  8  1  0
  3  9  1  0
  9 10  1  0
 10 11  2  0
 11  6  1  0
M  END
>  <docking_score>  (3) 
-1.5309999999999999

$$$$
