
     RDKit          3D

 12 12  0  0  0  0  0  0  0  0999 V2000
  136.5811  122.8258  141.1968 O   0  0  0  0  0  0  0  0  0  0  0  0
  135.8499  122.0229  140.5976 C   0  0  0  0  0  0  0  0  0  0  0  0
  136.3118  120.6867  140.2593 N   0  0  0  0  0  0  0  0  0  0  0  0
  135.2396  119.8327  139.8897 C   0  0  0  0  0  0  0  0  0  0  0  0
  135.1427  118.8838  138.9764 C   0  0  0  0  0  0  0  0  0  0  0  0
  136.0093  118.2607  137.9496 C   0  0  0  0  0  0  0  0  0  0  0  0
  137.3378  118.1133  137.9979 C   0  0  0  0  0  0  0  0  0  0  0  0
  137.9124  117.4361  136.7866 C   0  0  0  0  0  0  0  0  0  0  0  0
  138.2461  118.3291  135.8058 F   0  0  0  0  0  0  0  0  0  0  0  0
  137.7179  120.5457  140.3787 C   0  0  0  0  0  0  0  0  0  0  0  0
  138.3686  119.4146  139.7890 C   0  0  0  0  0  0  0  0  0  0  0  0
  138.3775  118.4496  138.9441 N   0  0  0  0  0  0  0  0  0  0  0  0
  1  2  2  0
  2  3  1  0
  3  4  1  0
  4  5  2  3
  5  6  1  0
  6  7  2  3
  7  8  1  0
  8  9  1  0
  3 10  1  0
 10 11  1  0
 11 12  2  3
 12  7  1  0
M  END
>  <docking_score>  (1) 
-4.7430000000000003

$$$$

     RDKit          3D

 12 12  0  0  0  0  0  0  0  0999 V2000
  136.7575  114.3461  133.0937 O   0  0  0  0  0  0  0  0  0  0  0  0
  137.1156  114.2678  134.2785 C   0  0  0  0  0  0  0  0  0  0  0  0
  137.2915  115.4573  135.0955 N   0  0  0  0  0  0  0  0  0  0  0  0
  136.4062  116.4991  134.7132 C   0  0  0  0  0  0  0  0  0  0  0  0
  135.7472  117.3997  135.4193 C   0  0  0  0  0  0  0  0  0  0  0  0
  135.5906  117.7727  136.8440 C   0  0  0  0  0  0  0  0  0  0  0  0
  136.4986  117.6379  137.8168 C   0  0  0  0  0  0  0  0  0  0  0  0
  136.0195  118.1162  139.1576 C   0  0  0  0  0  0  0  0  0  0  0  0
  134.6566  118.2178  139.2123 F   0  0  0  0  0  0  0  0  0  0  0  0
  138.3028  115.3032  136.0778 C   0  0  0  0  0  0  0  0  0  0  0  0
  138.3894  116.2399  137.1576 C   0  0  0  0  0  0  0  0  0  0  0  0
  137.8521  117.1373  137.9000 N   0  0  0  0  0  0  0  0  0  0  0  0
  1  2  2  0
  2  3  1  0
  3  4  1  0
  4  5  2  3
  5  6  1  0
  6  7  2  3
  7  8  1  0
  8  9  1  0
  3 10  1  0
 10 11  1  0
 11 12  2  3
 12  7  1  0
M  END
>  <docking_score>  (2) 
-4.4749999999999996

$$$$

     RDKit          3D

 12 12  0  0  0  0  0  0  0  0999 V2000
  123.4694  125.8389  144.3124 O   0  0  0  0  0  0  0  0  0  0  0  0
  122.3420  125.3513  144.4839 C   0  0  0  0  0  0  0  0  0  0  0  0
  121.5326  124.9048  143.3619 N   0  0  0  0  0  0  0  0  0  0  0  0
  121.7671  125.6809  142.1966 C   0  0  0  0  0  0  0  0  0  0  0  0
  121.8256  125.3562  140.9179 C   0  0  0  0  0  0  0  0  0  0  0  0
  121.6923  124.1339  140.0921 C   0  0  0  0  0  0  0  0  0  0  0  0
  120.9374  123.0617  140.3556 C   0  0  0  0  0  0  0  0  0  0  0  0
  121.0290  121.9893  139.3079 C   0  0  0  0  0  0  0  0  0  0  0  0
  121.9669  122.2777  138.3550 F   0  0  0  0  0  0  0  0  0  0  0  0
  120.6990  123.8053  143.6902 C   0  0  0  0  0  0  0  0  0  0  0  0
  120.0835  123.0463  142.6435 C   0  0  0  0  0  0  0  0  0  0  0  0
  120.0380  122.6714  141.4177 N   0  0  0  0  0  0  0  0  0  0  0  0
  1  2  2  0
  2  3  1  0
  3  4  1  0
  4  5  2  3
  5  6  1  0
  6  7  2  3
  7  8  1  0
  8  9  1  0
  3 10  1  0
 10 11  1  0
 11 12  2  3
 12  7  1  0
M  END
>  <docking_score>  (3) 
-3.8359999999999999

$$$$
