
     RDKit          3D

 21 23  0  0  0  0  0  0  0  0999 V2000
  120.8076  127.3144  139.9217 O   0  0  0  0  0  0  0  0  0  0  0  0
  121.1031  126.2013  140.4274 C   0  0  0  0  0  0  0  0  0  0  0  0
  122.4349  126.0386  140.9235 N   0  0  0  0  0  0  0  0  0  0  0  0
  122.8783  125.1696  141.9884 C   0  0  0  0  0  0  0  0  0  0  0  0
  124.0698  125.5490  142.5447 C   0  0  0  0  0  0  0  0  0  0  0  0
  124.6198  124.8142  143.5746 C   0  0  0  0  0  0  0  0  0  0  0  0
  126.1581  125.2731  144.3191 Cl  0  0  0  0  0  0  0  0  0  0  0  0
  123.9289  123.7009  144.0110 C   0  0  0  0  0  0  0  0  0  0  0  0
  122.7166  123.3176  143.4427 C   0  0  0  0  0  0  0  0  0  0  0  0
  121.8360  121.9152  143.9848 Cl  0  0  0  0  0  0  0  0  0  0  0  0
  122.1774  124.0598  142.4144 C   0  0  0  0  0  0  0  0  0  0  0  0
  120.0727  125.2214  140.4496 N   0  0  0  0  0  0  0  0  0  0  0  0
  118.7749  125.8578  140.1718 C   0  0  0  0  0  0  0  0  0  0  0  0
  118.1082  125.0566  139.0811 C   0  0  0  0  0  0  0  0  0  0  0  0
  119.2081  124.4160  138.2505 C   0  0  0  0  0  0  0  0  0  0  0  0
  119.1792  122.8119  140.0820 S   0  0  1  0  0  0  0  0  0  0  0  0
  120.1632  123.7955  140.6936 C   0  0  2  0  0  0  0  0  0  0  0  0
  120.8951  123.5303  141.9183 C   0  0  0  0  0  0  0  0  0  0  0  0
  120.3782  122.7001  142.7419 O   0  0  0  0  0  0  0  0  0  0  0  0
  117.9679  121.9301  139.5018 Cl  0  0  0  0  0  0  0  0  0  0  0  0
  120.8626  121.8483  138.3683 Cl  0  0  0  0  0  0  0  0  0  0  0  0
  1  2  2  0
  2  3  1  0
  3  4  1  0
  4  5  2  0
  5  6  1  0
  6  7  1  0
  6  8  2  0
  8  9  1  0
  9 10  1  0
  9 11  2  0
  2 12  1  0
 12 13  1  0
 13 14  1  0
 14 15  1  0
 15 16  1  0
 17 16  1  1
 17 18  1  0
 18 19  2  0
 16 20  1  0
 16 21  1  0
 11  4  1  0
 18 11  1  0
 17 12  1  0
M  END
>  <docking_score>  (1) 
-7.8940000000000001

$$$$

     RDKit          3D

 21 23  0  0  0  0  0  0  0  0999 V2000
  139.4656  114.5533  135.9179 O   0  0  0  0  0  0  0  0  0  0  0  0
  139.3677  114.7341  134.6770 C   0  0  0  0  0  0  0  0  0  0  0  0
  140.3429  114.1019  133.8428 N   0  0  0  0  0  0  0  0  0  0  0  0
  140.1846  113.6711  132.4735 C   0  0  0  0  0  0  0  0  0  0  0  0
  141.0854  112.7137  132.0929 C   0  0  0  0  0  0  0  0  0  0  0  0
  141.0566  112.2043  130.8113 C   0  0  0  0  0  0  0  0  0  0  0  0
  142.2044  110.9658  130.2823 Cl  0  0  0  0  0  0  0  0  0  0  0  0
  140.0976  112.6932  129.9461 C   0  0  0  0  0  0  0  0  0  0  0  0
  139.1824  113.6676  130.3365 C   0  0  0  0  0  0  0  0  0  0  0  0
  137.9682  114.2921  129.2540 Cl  0  0  0  0  0  0  0  0  0  0  0  0
  139.2214  114.1687  131.6197 C   0  0  0  0  0  0  0  0  0  0  0  0
  138.2908  115.5528  134.2384 N   0  0  0  0  0  0  0  0  0  0  0  0
  137.3242  115.7322  135.3339 C   0  0  0  0  0  0  0  0  0  0  0  0
  137.0551  117.2117  135.4551 C   0  0  0  0  0  0  0  0  0  0  0  0
  138.2955  117.9410  134.9655 C   0  0  0  0  0  0  0  0  0  0  0  0
  137.2941  117.4680  132.7971 S   0  0  1  0  0  0  0  0  0  0  0  0
  138.0708  116.1702  132.9456 C   0  0  2  0  0  0  0  0  0  0  0  0
  138.1929  115.1904  131.8821 C   0  0  0  0  0  0  0  0  0  0  0  0
  137.2727  115.1712  130.9946 O   0  0  0  0  0  0  0  0  0  0  0  0
  136.3140  118.7412  132.7936 Cl  0  0  0  0  0  0  0  0  0  0  0  0
  139.3756  118.9157  132.2770 Cl  0  0  0  0  0  0  0  0  0  0  0  0
  1  2  2  0
  2  3  1  0
  3  4  1  0
  4  5  2  0
  5  6  1  0
  6  7  1  0
  6  8  2  0
  8  9  1  0
  9 10  1  0
  9 11  2  0
  2 12  1  0
 12 13  1  0
 13 14  1  0
 14 15  1  0
 15 16  1  0
 17 16  1  1
 17 18  1  0
 18 19  2  0
 16 20  1  0
 16 21  1  0
 11  4  1  0
 18 11  1  0
 17 12  1  0
M  END
>  <docking_score>  (2) 
-6.7880000000000003

$$$$
