
     RDKit          3D

 27 30  0  0  0  0  0  0  0  0999 V2000
  128.3927  140.3628  143.1138 O   0  0  0  0  0  0  0  0  0  0  0  0
  127.6376  141.2600  143.5198 C   0  0  0  0  0  0  0  0  0  0  0  0
  126.6396  140.8605  144.4547 N   0  0  0  0  0  0  0  0  0  0  0  0
  126.5397  139.4654  144.8600 C   0  0  2  0  0  0  0  0  0  0  0  0
  125.7998  139.0357  146.0352 C   0  0  0  0  0  0  0  0  0  0  0  0
  127.2584  139.1778  146.1813 C   0  0  1  0  0  0  0  0  0  0  0  0
  128.1685  138.0046  146.0295 C   0  0  0  0  0  0  0  0  0  0  0  0
  127.7435  136.7012  145.9925 C   0  0  0  0  0  0  0  0  0  0  0  0
  128.6523  135.6601  145.8224 C   0  0  0  0  0  0  0  0  0  0  0  0
  129.9940  135.9076  145.6872 C   0  0  0  0  0  0  0  0  0  0  0  0
  130.4320  137.2199  145.7248 C   0  0  0  0  0  0  0  0  0  0  0  0
  129.5164  138.2564  145.8956 C   0  0  0  0  0  0  0  0  0  0  0  0
  127.7899  142.6206  143.0421 N   0  0  0  0  0  0  0  0  0  0  0  0
  128.8418  142.8110  142.0892 C   0  0  0  0  0  0  0  0  0  0  0  0
  128.3042  142.7667  140.6839 C   0  0  0  0  0  0  0  0  0  0  0  0
  129.5141  142.4720  139.7344 C   0  0  0  0  0  0  0  0  0  0  0  0
  129.7842  141.0089  139.9458 C   0  0  0  0  0  0  0  0  0  0  0  0
  129.0312  139.9284  139.7642 N   0  0  0  0  0  0  0  0  0  0  0  0
  129.7680  138.8559  140.1231 C   0  0  0  0  0  0  0  0  0  0  0  0
  129.3934  137.4391  140.1173 C   0  0  0  0  0  0  0  0  0  0  0  0
  129.5964  136.6461  141.2359 C   0  0  0  0  0  0  0  0  0  0  0  0
  129.2508  135.3198  141.2553 C   0  0  0  0  0  0  0  0  0  0  0  0
  128.6902  134.7636  140.1394 C   0  0  0  0  0  0  0  0  0  0  0  0
  128.4718  135.5231  139.0040 C   0  0  0  0  0  0  0  0  0  0  0  0
  128.8341  136.8712  139.0146 C   0  0  0  0  0  0  0  0  0  0  0  0
  130.9652  139.3362  140.5109 N   0  0  0  0  0  0  0  0  0  0  0  0
  130.9466  140.6169  140.3955 O   0  0  0  0  0  0  0  0  0  0  0  0
  1  2  2  0
  2  3  1  0
  4  3  1  1
  4  5  1  0
  5  6  1  0
  6  7  1  6
  7  8  2  0
  8  9  1  0
  9 10  2  0
 10 11  1  0
 11 12  2  0
  2 13  1  0
 13 14  1  0
 14 15  1  0
 15 16  1  0
 16 17  1  0
 17 18  2  0
 18 19  1  0
 19 20  1  0
 20 21  2  0
 21 22  1  0
 22 23  2  0
 23 24  1  0
 24 25  2  0
 19 26  2  0
 26 27  1  0
  6  4  1  0
 12  7  1  0
 27 17  1  0
 25 20  1  0
M  END
>  <docking_score>  (1) 
-7.6660000000000004

$$$$

     RDKit          3D

 27 30  0  0  0  0  0  0  0  0999 V2000
  137.2430  115.4199  135.6782 O   0  0  0  0  0  0  0  0  0  0  0  0
  137.8203  116.3597  135.1095 C   0  0  0  0  0  0  0  0  0  0  0  0
  137.7390  117.6260  135.7572 N   0  0  0  0  0  0  0  0  0  0  0  0
  136.9915  117.7606  136.9996 C   0  0  2  0  0  0  0  0  0  0  0  0
  135.5421  117.8624  137.0419 C   0  0  0  0  0  0  0  0  0  0  0  0
  136.3013  119.1210  137.1333 C   0  0  1  0  0  0  0  0  0  0  0  0
  136.6229  119.7358  138.4549 C   0  0  0  0  0  0  0  0  0  0  0  0
  137.8656  119.7077  139.0341 C   0  0  0  0  0  0  0  0  0  0  0  0
  138.0943  120.3269  140.2601 C   0  0  0  0  0  0  0  0  0  0  0  0
  137.0867  120.9807  140.9210 C   0  0  0  0  0  0  0  0  0  0  0  0
  135.8289  121.0129  140.3444 C   0  0  0  0  0  0  0  0  0  0  0  0
  135.6078  120.3905  139.1174 C   0  0  0  0  0  0  0  0  0  0  0  0
  138.5196  116.1429  133.8578 N   0  0  0  0  0  0  0  0  0  0  0  0
  138.4667  114.8004  133.3622 C   0  0  0  0  0  0  0  0  0  0  0  0
  138.7782  114.7616  131.8900 C   0  0  0  0  0  0  0  0  0  0  0  0
  137.9937  115.9395  131.2197 C   0  0  0  0  0  0  0  0  0  0  0  0
  136.8021  115.2659  130.5995 C   0  0  0  0  0  0  0  0  0  0  0  0
  135.5232  115.2094  130.9586 N   0  0  0  0  0  0  0  0  0  0  0  0
  134.8785  114.4539  130.0446 C   0  0  0  0  0  0  0  0  0  0  0  0
  133.4619  114.0820  129.9931 C   0  0  0  0  0  0  0  0  0  0  0  0
  132.6092  114.6594  129.0653 C   0  0  0  0  0  0  0  0  0  0  0  0
  131.2818  114.3248  128.9957 C   0  0  0  0  0  0  0  0  0  0  0  0
  130.7850  113.3953  129.8664 C   0  0  0  0  0  0  0  0  0  0  0  0
  131.6051  112.7971  130.8062 C   0  0  0  0  0  0  0  0  0  0  0  0
  132.9527  113.1583  130.8526 C   0  0  0  0  0  0  0  0  0  0  0  0
  135.8083  114.0784  129.1453 N   0  0  0  0  0  0  0  0  0  0  0  0
  136.9408  114.5743  129.4997 O   0  0  0  0  0  0  0  0  0  0  0  0
  1  2  2  0
  2  3  1  0
  4  3  1  6
  4  5  1  0
  5  6  1  0
  6  7  1  1
  7  8  2  0
  8  9  1  0
  9 10  2  0
 10 11  1  0
 11 12  2  0
  2 13  1  0
 13 14  1  0
 14 15  1  0
 15 16  1  0
 16 17  1  0
 17 18  2  0
 18 19  1  0
 19 20  1  0
 20 21  2  0
 21 22  1  0
 22 23  2  0
 23 24  1  0
 24 25  2  0
 19 26  2  0
 26 27  1  0
  6  4  1  0
 12  7  1  0
 27 17  1  0
 25 20  1  0
M  END
>  <docking_score>  (2) 
-7.101

$$$$

     RDKit          3D

 27 30  0  0  0  0  0  0  0  0999 V2000
  141.2829  135.5912  137.5889 O   0  0  0  0  0  0  0  0  0  0  0  0
  142.3946  135.1610  137.9339 C   0  0  0  0  0  0  0  0  0  0  0  0
  142.6873  133.8174  137.5612 N   0  0  0  0  0  0  0  0  0  0  0  0
  141.6974  133.0312  136.8385 C   0  0  2  0  0  0  0  0  0  0  0  0
  141.9192  131.6487  136.4478 C   0  0  0  0  0  0  0  0  0  0  0  0
  142.1430  132.6765  135.4170 C   0  0  1  0  0  0  0  0  0  0  0  0
  141.0754  133.0337  134.4368 C   0  0  0  0  0  0  0  0  0  0  0  0
  141.1571  134.0848  133.5598 C   0  0  0  0  0  0  0  0  0  0  0  0
  140.1291  134.3401  132.6561 C   0  0  0  0  0  0  0  0  0  0  0  0
  139.0093  133.5500  132.6172 C   0  0  0  0  0  0  0  0  0  0  0  0
  138.9178  132.4878  133.4997 C   0  0  0  0  0  0  0  0  0  0  0  0
  139.9506  132.2390  134.4014 C   0  0  0  0  0  0  0  0  0  0  0  0
  143.3106  136.0045  138.6769 N   0  0  0  0  0  0  0  0  0  0  0  0
  142.8189  137.3173  138.9695 C   0  0  0  0  0  0  0  0  0  0  0  0
  142.1713  137.3548  140.3279 C   0  0  0  0  0  0  0  0  0  0  0  0
  142.8838  136.2751  141.2104 C   0  0  0  0  0  0  0  0  0  0  0  0
  141.7599  135.3838  141.6587 C   0  0  0  0  0  0  0  0  0  0  0  0
  141.6974  134.0759  141.8890 N   0  0  0  0  0  0  0  0  0  0  0  0
  140.4325  133.7903  142.2637 C   0  0  0  0  0  0  0  0  0  0  0  0
  139.8487  132.4936  142.6178 C   0  0  0  0  0  0  0  0  0  0  0  0
  140.6368  131.3556  142.6895 C   0  0  0  0  0  0  0  0  0  0  0  0
  140.1141  130.1329  143.0222 C   0  0  0  0  0  0  0  0  0  0  0  0
  138.7773  130.0334  143.2906 C   0  0  0  0  0  0  0  0  0  0  0  0
  137.9588  131.1469  143.2295 C   0  0  0  0  0  0  0  0  0  0  0  0
  138.5202  132.3785  142.8881 C   0  0  0  0  0  0  0  0  0  0  0  0
  139.7646  134.9600  142.2514 N   0  0  0  0  0  0  0  0  0  0  0  0
  140.5769  135.8886  141.8884 O   0  0  0  0  0  0  0  0  0  0  0  0
  1  2  2  0
  2  3  1  0
  4  3  1  1
  4  5  1  0
  5  6  1  0
  6  7  1  6
  7  8  2  0
  8  9  1  0
  9 10  2  0
 10 11  1  0
 11 12  2  0
  2 13  1  0
 13 14  1  0
 14 15  1  0
 15 16  1  0
 16 17  1  0
 17 18  2  0
 18 19  1  0
 19 20  1  0
 20 21  2  0
 21 22  1  0
 22 23  2  0
 23 24  1  0
 24 25  2  0
 19 26  2  0
 26 27  1  0
  6  4  1  0
 12  7  1  0
 27 17  1  0
 25 20  1  0
M  END
>  <docking_score>  (3) 
-7.0410000000000004

$$$$
