
     RDKit          3D

 25 27  0  0  0  0  0  0  0  0999 V2000
  136.1852  121.9340  141.2318 C   0  0  0  0  0  0  0  0  0  0  0  0
  136.1343  121.5598  139.7607 C   0  0  0  0  0  0  0  0  0  0  0  0
  135.0543  120.5067  139.4917 C   0  0  2  0  0  0  0  0  0  0  0  0
  133.8958  120.7472  140.4458 C   0  0  0  0  0  0  0  0  0  0  0  0
  135.5750  119.1069  139.7561 C   0  0  0  0  0  3  0  0  0  0  0  0
  135.7826  118.4630  138.4796 N   0  0  0  0  0  0  0  0  0  0  0  0
  137.0295  118.4187  137.8178 C   0  0  0  0  0  0  0  0  0  0  0  0
  138.0376  118.9504  138.3220 O   0  0  0  0  0  0  0  0  0  0  0  0
  137.1170  117.7545  136.5633 N   0  0  0  0  0  0  0  0  0  0  0  0
  136.3425  118.2386  135.4227 C   0  0  0  0  0  0  0  0  0  0  0  0
  135.4429  117.0867  135.0200 C   0  0  0  0  0  0  0  0  0  0  0  0
  136.3496  115.9542  134.5347 C   0  0  0  0  0  0  0  0  0  0  0  0
  137.2842  115.5106  135.5929 C   0  0  0  0  0  0  0  0  0  0  0  0
  137.9507  116.6049  136.3560 C   0  0  0  0  0  0  0  0  0  0  0  0
  136.7953  116.1166  133.1688 C   0  0  0  0  0  0  0  0  0  0  0  0
  138.0114  115.7179  132.7493 N   0  0  0  0  0  0  0  0  0  0  0  0
  139.2267  116.3538  132.8684 C   0  0  0  0  0  0  0  0  0  0  0  0
  139.1647  117.7984  133.2009 C   0  0  0  0  0  0  0  0  0  0  0  0
  140.2506  115.6816  133.7413 C   0  0  0  0  0  0  0  0  0  0  0  0
  138.2100  114.2947  132.5209 C   0  0  1  0  0  0  0  0  0  0  0  0
  136.9373  113.7392  131.9969 C   0  0  0  0  0  0  0  0  0  0  0  0
  137.5971  113.3397  130.9164 C   0  0  0  0  0  0  0  0  0  0  0  0
  138.4693  112.9674  129.7961 C   0  0  0  0  0  0  0  0  0  0  0  0
  139.4971  113.4293  130.5027 C   0  0  0  0  0  0  0  0  0  0  0  0
  138.7928  113.7712  131.5018 N   0  0  0  0  0  3  0  0  0  0  0  0
  1  2  1  0
  2  3  1  0
  3  4  1  1
  3  5  1  0
  5  6  1  0
  6  7  1  0
  7  8  2  0
  7  9  1  0
  9 10  1  0
 10 11  1  0
 11 12  1  0
 12 13  1  0
 13 14  1  0
 12 15  1  0
 15 16  1  0
 16 17  1  0
 17 18  1  0
 17 19  1  0
 20 16  1  6
 20 21  1  0
 21 22  2  0
 22 23  1  0
 23 24  2  0
 24 25  1  0
 14  9  1  0
 25 20  1  0
 25 22  1  0
M  CHG  1  25   1
M  RAD  2   5   2  25   2
M  END
>  <docking_score>  (1) 
-6.3330000000000002

$$$$

     RDKit          3D

 25 27  0  0  0  0  0  0  0  0999 V2000
  136.2523  119.0023  136.8894 C   0  0  0  0  0  0  0  0  0  0  0  0
  135.7872  119.1413  138.3286 C   0  0  0  0  0  0  0  0  0  0  0  0
  136.6801  120.1103  139.1105 C   0  0  2  0  0  0  0  0  0  0  0  0
  137.8648  119.3361  139.6649 C   0  0  0  0  0  0  0  0  0  0  0  0
  135.9386  120.7088  140.2906 C   0  0  0  0  0  3  0  0  0  0  0  0
  135.5566  122.0563  139.9365 N   0  0  0  0  0  0  0  0  0  0  0  0
  134.2204  122.5136  139.9211 C   0  0  0  0  0  0  0  0  0  0  0  0
  133.2822  121.7502  140.2218 O   0  0  0  0  0  0  0  0  0  0  0  0
  133.9618  123.8639  139.5571 N   0  0  0  0  0  0  0  0  0  0  0  0
  132.8859  124.6055  140.2111 C   0  0  0  0  0  0  0  0  0  0  0  0
  131.9325  125.0067  139.1028 C   0  0  0  0  0  0  0  0  0  0  0  0
  132.6870  125.9706  138.1853 C   0  0  0  0  0  0  0  0  0  0  0  0
  133.8922  125.3400  137.6023 C   0  0  0  0  0  0  0  0  0  0  0  0
  134.7255  124.5524  138.5561 C   0  0  0  0  0  0  0  0  0  0  0  0
  132.7235  127.3288  138.6798 C   0  0  0  0  0  0  0  0  0  0  0  0
  131.7607  128.2289  138.4026 N   0  0  0  0  0  0  0  0  0  0  0  0
  130.9710  128.9547  139.2656 C   0  0  0  0  0  0  0  0  0  0  0  0
  129.6043  128.4212  139.4867 C   0  0  0  0  0  0  0  0  0  0  0  0
  131.5865  129.3207  140.5882 C   0  0  0  0  0  0  0  0  0  0  0  0
  131.7945  128.8677  137.0957 C   0  0  1  0  0  0  0  0  0  0  0  0
  131.6657  130.3316  137.3049 C   0  0  0  0  0  0  0  0  0  0  0  0
  132.8303  130.4870  136.6869 C   0  0  0  0  0  0  0  0  0  0  0  0
  134.1195  130.4847  135.9853 C   0  0  0  0  0  0  0  0  0  0  0  0
  133.9704  129.1745  135.8112 C   0  0  0  0  0  0  0  0  0  0  0  0
  132.8515  129.1158  136.4076 N   0  0  0  0  0  3  0  0  0  0  0  0
  1  2  1  0
  2  3  1  0
  3  4  1  1
  3  5  1  0
  5  6  1  0
  6  7  1  0
  7  8  2  0
  7  9  1  0
  9 10  1  0
 10 11  1  0
 11 12  1  0
 12 13  1  0
 13 14  1  0
 12 15  1  0
 15 16  1  0
 16 17  1  0
 17 18  1  0
 17 19  1  0
 20 16  1  1
 20 21  1  0
 21 22  2  0
 22 23  1  0
 23 24  2  0
 24 25  1  0
 14  9  1  0
 25 20  1  0
 25 22  1  0
M  CHG  1  25   1
M  RAD  2   5   2  25   2
M  END
>  <docking_score>  (2) 
-6.0119999999999996

$$$$

     RDKit          3D

 25 27  0  0  0  0  0  0  0  0999 V2000
  148.4211  139.5569  130.7232 C   0  0  0  0  0  0  0  0  0  0  0  0
  148.6801  138.4187  131.6949 C   0  0  0  0  0  0  0  0  0  0  0  0
  148.2533  137.0724  131.1009 C   0  0  2  0  0  0  0  0  0  0  0  0
  146.7487  137.0935  130.8864 C   0  0  0  0  0  0  0  0  0  0  0  0
  148.5586  135.9314  132.0524 C   0  0  0  0  0  3  0  0  0  0  0  0
  147.3249  135.5548  132.7029 N   0  0  0  0  0  0  0  0  0  0  0  0
  147.2667  134.8242  133.9103 C   0  0  0  0  0  0  0  0  0  0  0  0
  148.3107  134.4606  134.4858 O   0  0  0  0  0  0  0  0  0  0  0  0
  145.9938  134.5102  134.4613 N   0  0  0  0  0  0  0  0  0  0  0  0
  145.8967  133.6411  135.6319 C   0  0  0  0  0  0  0  0  0  0  0  0
  145.0632  132.4536  135.1924 C   0  0  0  0  0  0  0  0  0  0  0  0
  143.6630  132.9791  134.8711 C   0  0  0  0  0  0  0  0  0  0  0  0
  143.6935  133.9930  133.7935 C   0  0  0  0  0  0  0  0  0  0  0  0
  144.7693  135.0191  133.9125 C   0  0  0  0  0  0  0  0  0  0  0  0
  142.8322  133.1612  136.0405 C   0  0  0  0  0  0  0  0  0  0  0  0
  141.5350  133.5145  135.9621 N   0  0  0  0  0  0  0  0  0  0  0  0
  140.5559  133.0546  135.1105 C   0  0  0  0  0  0  0  0  0  0  0  0
  140.3067  131.5925  135.1498 C   0  0  0  0  0  0  0  0  0  0  0  0
  139.2432  133.7881  135.1419 C   0  0  0  0  0  0  0  0  0  0  0  0
  140.9318  134.1217  137.1388 C   0  0  1  0  0  0  0  0  0  0  0  0
  141.2462  133.2582  138.3043 C   0  0  0  0  0  0  0  0  0  0  0  0
  141.8378  134.3015  138.8733 C   0  0  0  0  0  0  0  0  0  0  0  0
  142.4475  135.5452  139.3591 C   0  0  0  0  0  0  0  0  0  0  0  0
  141.9652  136.1502  138.2773 C   0  0  0  0  0  0  0  0  0  0  0  0
  141.4165  135.1060  137.8085 N   0  0  0  0  0  3  0  0  0  0  0  0
  1  2  1  0
  2  3  1  0
  3  4  1  1
  3  5  1  0
  5  6  1  0
  6  7  1  0
  7  8  2  0
  7  9  1  0
  9 10  1  0
 10 11  1  0
 11 12  1  0
 12 13  1  0
 13 14  1  0
 12 15  1  0
 15 16  1  0
 16 17  1  0
 17 18  1  0
 17 19  1  0
 20 16  1  6
 20 21  1  0
 21 22  2  0
 22 23  1  0
 23 24  2  0
 24 25  1  0
 14  9  1  0
 25 20  1  0
 25 22  1  0
M  CHG  1  25   1
M  RAD  2   5   2  25   2
M  END
>  <docking_score>  (3) 
-5.8230000000000004

$$$$
