
     RDKit          3D

 29 33  0  0  0  0  0  0  0  0999 V2000
  136.0972  125.7997  137.5981 O   0  0  0  0  0  0  0  0  0  0  0  0
  134.8967  125.4990  137.9102 C   0  0  0  0  0  0  0  0  0  0  0  0
  134.6486  124.3627  138.7271 N   0  0  0  0  0  0  0  0  0  0  0  0
  135.7448  123.5472  139.2103 C   0  0  1  0  0  0  0  0  0  0  0  0
  135.7330  123.2950  140.7198 C   0  0  0  0  0  0  0  0  0  0  0  0
  135.3159  122.2065  139.7692 C   0  0  2  0  0  0  0  0  0  0  0  0
  136.2528  121.0740  139.6809 C   0  0  0  0  0  0  0  0  0  0  0  0
  136.1456  120.2383  138.5907 C   0  0  0  0  0  0  0  0  0  0  0  0
  136.9543  119.1493  138.3958 C   0  0  0  0  0  0  0  0  0  0  0  0
  137.9249  118.8779  139.3428 C   0  0  0  0  0  0  0  0  0  0  0  0
  138.0329  119.7239  140.4440 C   0  0  0  0  0  0  0  0  0  0  0  0
  137.2142  120.8162  140.6291 C   0  0  0  0  0  0  0  0  0  0  0  0
  133.8353  126.3391  137.4103 N   0  0  0  0  0  0  0  0  0  0  0  0
  134.1775  127.4484  136.5918 C   0  0  2  0  0  0  0  0  0  0  0  0
  133.9852  128.8088  137.2614 C   0  0  0  0  0  0  0  0  0  0  0  0
  134.1864  129.7417  136.0807 C   0  0  2  0  0  0  0  0  0  0  0  0
  133.3797  130.9542  136.2665 C   0  0  0  0  0  0  0  0  0  0  0  0
  133.6228  131.9371  137.1893 N   0  0  0  0  0  0  0  0  0  0  0  0
  132.6964  132.8918  137.0913 C   0  0  0  0  0  0  0  0  0  0  0  0
  132.5271  134.1160  137.8432 C   0  0  0  0  0  0  0  0  0  0  0  0
  133.5808  134.9167  138.2625 C   0  0  0  0  0  0  0  0  0  0  0  0
  133.3863  136.0803  138.9818 C   0  0  0  0  0  0  0  0  0  0  0  0
  132.1001  136.4532  139.2897 C   0  0  0  0  0  0  0  0  0  0  0  0
  131.0589  135.6565  138.8716 C   0  0  0  0  0  0  0  0  0  0  0  0
  131.3049  134.5424  138.1804 N   0  0  0  0  0  0  0  0  0  0  0  0
  131.8834  132.4872  136.1002 N   0  0  0  0  0  0  0  0  0  0  0  0
  132.3022  131.3510  135.6319 O   0  0  0  0  0  0  0  0  0  0  0  0
  133.7179  129.0052  134.8661 C   0  0  0  0  0  0  0  0  0  0  0  0
  133.3637  127.6290  135.3514 C   0  0  0  0  0  0  0  0  0  0  0  0
  1  2  2  0
  2  3  1  0
  4  3  1  1
  4  5  1  0
  5  6  1  0
  6  7  1  6
  7  8  2  0
  8  9  1  0
  9 10  2  0
 10 11  1  0
 11 12  2  0
  2 13  1  0
 14 13  1  1
 14 15  1  0
 15 16  1  0
 16 17  1  1
 17 18  2  0
 18 19  1  0
 19 20  1  0
 20 21  2  0
 21 22  1  0
 22 23  2  0
 23 24  1  0
 24 25  2  0
 19 26  2  0
 26 27  1  0
 16 28  1  0
 28 29  1  0
  6  4  1  0
 12  7  1  0
 29 14  1  0
 27 17  1  0
 25 20  1  0
M  END
>  <docking_score>  (1) 
-8.6679999999999993

$$$$

     RDKit          3D

 29 33  0  0  0  0  0  0  0  0999 V2000
  129.8579  125.5724  141.0804 O   0  0  0  0  0  0  0  0  0  0  0  0
  130.1196  125.8634  142.2952 C   0  0  0  0  0  0  0  0  0  0  0  0
  129.0669  125.9003  143.2496 N   0  0  0  0  0  0  0  0  0  0  0  0
  127.7033  125.6074  142.8563 C   0  0  1  0  0  0  0  0  0  0  0  0
  127.3133  124.1314  142.9633 C   0  0  0  0  0  0  0  0  0  0  0  0
  126.8267  125.1172  143.9900 C   0  0  2  0  0  0  0  0  0  0  0  0
  125.3825  125.3991  143.9366 C   0  0  0  0  0  0  0  0  0  0  0  0
  124.7016  125.4792  145.1318 C   0  0  0  0  0  0  0  0  0  0  0  0
  123.3573  125.7315  145.2157 C   0  0  0  0  0  0  0  0  0  0  0  0
  122.6517  125.9136  144.0403 C   0  0  0  0  0  0  0  0  0  0  0  0
  123.3412  125.8333  142.8328 C   0  0  0  0  0  0  0  0  0  0  0  0
  124.6933  125.5793  142.7609 C   0  0  0  0  0  0  0  0  0  0  0  0
  131.4910  126.1454  142.6447 N   0  0  0  0  0  0  0  0  0  0  0  0
  132.4751  126.0945  141.6217 C   0  0  2  0  0  0  0  0  0  0  0  0
  132.8929  124.6805  141.2189 C   0  0  0  0  0  0  0  0  0  0  0  0
  134.0877  124.9755  140.3301 C   0  0  2  0  0  0  0  0  0  0  0  0
  135.0517  123.8715  140.4163 C   0  0  0  0  0  0  0  0  0  0  0  0
  135.0036  122.7152  139.6832 N   0  0  0  0  0  0  0  0  0  0  0  0
  136.0276  121.9259  140.0115 C   0  0  0  0  0  0  0  0  0  0  0  0
  136.3983  120.6166  139.5207 C   0  0  0  0  0  0  0  0  0  0  0  0
  137.6889  120.1082  139.5758 C   0  0  0  0  0  0  0  0  0  0  0  0
  138.0117  118.8532  139.0961 C   0  0  0  0  0  0  0  0  0  0  0  0
  137.0139  118.0852  138.5460 C   0  0  0  0  0  0  0  0  0  0  0  0
  135.7362  118.5933  138.4939 C   0  0  0  0  0  0  0  0  0  0  0  0
  135.4812  119.8126  138.9714 N   0  0  0  0  0  0  0  0  0  0  0  0
  136.7050  122.6078  140.9512 N   0  0  0  0  0  0  0  0  0  0  0  0
  136.1161  123.7435  141.1723 O   0  0  0  0  0  0  0  0  0  0  0  0
  134.7112  126.2314  140.8508 C   0  0  0  0  0  0  0  0  0  0  0  0
  133.8029  126.6953  141.9530 C   0  0  0  0  0  0  0  0  0  0  0  0
  1  2  2  0
  2  3  1  0
  4  3  1  1
  4  5  1  0
  5  6  1  0
  6  7  1  6
  7  8  2  0
  8  9  1  0
  9 10  2  0
 10 11  1  0
 11 12  2  0
  2 13  1  0
 14 13  1  1
 14 15  1  0
 15 16  1  0
 16 17  1  1
 17 18  2  0
 18 19  1  0
 19 20  1  0
 20 21  2  0
 21 22  1  0
 22 23  2  0
 23 24  1  0
 24 25  2  0
 19 26  2  0
 26 27  1  0
 16 28  1  0
 28 29  1  0
  6  4  1  0
 12  7  1  0
 29 14  1  0
 27 17  1  0
 25 20  1  0
M  END
>  <docking_score>  (2) 
-8.3580000000000005

$$$$

     RDKit          3D

 29 33  0  0  0  0  0  0  0  0999 V2000
  134.0727  127.5362  137.1796 O   0  0  0  0  0  0  0  0  0  0  0  0
  132.8829  127.2905  137.5705 C   0  0  0  0  0  0  0  0  0  0  0  0
  132.6252  126.1244  138.3414 N   0  0  0  0  0  0  0  0  0  0  0  0
  133.7000  125.2169  138.6892 C   0  0  1  0  0  0  0  0  0  0  0  0
  134.2435  125.3889  140.1095 C   0  0  0  0  0  0  0  0  0  0  0  0
  133.3437  124.2292  139.7808 C   0  0  2  0  0  0  0  0  0  0  0  0
  134.0072  122.9147  139.7857 C   0  0  0  0  0  0  0  0  0  0  0  0
  133.2879  121.8367  140.2537 C   0  0  0  0  0  0  0  0  0  0  0  0
  133.7934  120.5644  140.3131 C   0  0  0  0  0  0  0  0  0  0  0  0
  135.0907  120.3555  139.8819 C   0  0  0  0  0  0  0  0  0  0  0  0
  135.8165  121.4458  139.4082 C   0  0  0  0  0  0  0  0  0  0  0  0
  135.2974  122.7207  139.3529 C   0  0  0  0  0  0  0  0  0  0  0  0
  131.8429  128.2216  137.2047 N   0  0  0  0  0  0  0  0  0  0  0  0
  132.1925  129.3550  136.4231 C   0  0  2  0  0  0  0  0  0  0  0  0
  133.0175  130.4040  137.1682 C   0  0  0  0  0  0  0  0  0  0  0  0
  133.0002  131.5467  136.1688 C   0  0  2  0  0  0  0  0  0  0  0  0
  133.0646  132.8280  136.8828 C   0  0  0  0  0  0  0  0  0  0  0  0
  132.1564  133.2683  137.8091 N   0  0  0  0  0  0  0  0  0  0  0  0
  132.5126  134.4728  138.2580 C   0  0  0  0  0  0  0  0  0  0  0  0
  131.8781  135.3382  139.2282 C   0  0  0  0  0  0  0  0  0  0  0  0
  131.5397  136.6611  138.9782 C   0  0  0  0  0  0  0  0  0  0  0  0
  130.9357  137.4633  139.9275 C   0  0  0  0  0  0  0  0  0  0  0  0
  130.6624  136.9254  141.1619 C   0  0  0  0  0  0  0  0  0  0  0  0
  130.9993  135.6135  141.4049 C   0  0  0  0  0  0  0  0  0  0  0  0
  131.5822  134.8851  140.4514 N   0  0  0  0  0  0  0  0  0  0  0  0
  133.6473  134.7676  137.6003 N   0  0  0  0  0  0  0  0  0  0  0  0
  133.9518  133.7909  136.8010 O   0  0  0  0  0  0  0  0  0  0  0  0
  131.7062  131.4480  135.4252 C   0  0  0  0  0  0  0  0  0  0  0  0
  131.0567  130.1911  135.9287 C   0  0  0  0  0  0  0  0  0  0  0  0
  1  2  2  0
  2  3  1  0
  4  3  1  1
  4  5  1  0
  5  6  1  0
  6  7  1  6
  7  8  2  0
  8  9  1  0
  9 10  2  0
 10 11  1  0
 11 12  2  0
  2 13  1  0
 14 13  1  1
 14 15  1  0
 15 16  1  0
 16 17  1  1
 17 18  2  0
 18 19  1  0
 19 20  1  0
 20 21  2  0
 21 22  1  0
 22 23  2  0
 23 24  1  0
 24 25  2  0
 19 26  2  0
 26 27  1  0
 16 28  1  0
 28 29  1  0
  6  4  1  0
 12  7  1  0
 29 14  1  0
 27 17  1  0
 25 20  1  0
M  END
>  <docking_score>  (3) 
-7.8449999999999998

$$$$
