
     RDKit          3D

 21 22  0  0  0  0  0  0  0  0999 V2000
  119.0438  123.3550  142.3761 O   0  0  0  0  0  0  0  0  0  0  0  0
  120.2826  123.3784  142.1246 C   0  0  0  0  0  0  0  0  0  0  0  0
  121.1154  124.0889  142.9843 N   0  0  0  0  0  0  0  0  0  0  0  0
  122.3712  124.6881  142.7267 C   0  0  0  0  0  0  0  0  0  0  0  0
  123.4185  124.4105  143.6040 C   0  0  0  0  0  0  0  0  0  0  0  0
  124.6699  124.9200  143.4720 C   0  0  0  0  0  0  0  0  0  0  0  0
  125.9745  124.5487  144.6007 Cl  0  0  0  0  0  0  0  0  0  0  0  0
  124.9514  125.7542  142.4326 C   0  0  0  0  0  0  0  0  0  0  0  0
  123.9322  126.0573  141.5325 C   0  0  0  0  0  0  0  0  0  0  0  0
  124.2749  126.8904  140.5215 F   0  0  0  0  0  0  0  0  0  0  0  0
  122.6487  125.5311  141.6731 C   0  0  0  0  0  0  0  0  0  0  0  0
  120.7169  122.6691  140.9746 N   0  0  0  0  0  0  0  0  0  0  0  0
  121.7694  123.1087  140.0818 C   0  0  0  0  0  0  0  0  0  0  0  0
  121.0573  123.7724  138.8942 C   0  0  0  0  0  0  0  0  0  0  0  0
  119.6380  124.1406  139.2615 C   0  0  1  0  0  0  0  0  0  0  0  0
  119.5112  125.6140  139.5796 C   0  0  0  0  0  0  0  0  0  0  0  0
  120.2117  125.9764  140.8651 C   0  0  0  0  0  0  0  0  0  0  0  0
  121.6826  125.9348  140.6595 C   0  0  0  0  0  0  0  0  0  0  0  0
  122.0631  126.2902  139.4892 O   0  0  0  0  0  0  0  0  0  0  0  0
  118.7457  123.7954  138.0896 C   0  0  0  0  0  0  0  0  0  0  0  0
  117.8837  125.2040  137.4644 Cl  0  0  0  0  0  0  0  0  0  0  0  0
  1  2  2  0
  2  3  1  0
  3  4  1  0
  4  5  2  0
  5  6  1  0
  6  7  1  0
  6  8  2  0
  8  9  1  0
  9 10  1  0
  9 11  2  0
  2 12  1  0
 12 13  1  0
 13 14  1  0
 14 15  1  0
 15 16  1  0
 16 17  1  0
 17 18  1  0
 18 19  2  0
 15 20  1  6
 20 21  1  0
 11  4  1  0
 18 11  1  0
M  END
>  <docking_score>  (1) 
-7.407

$$$$

     RDKit          3D

 21 22  0  0  0  0  0  0  0  0999 V2000
  140.1225  114.2596  134.4481 O   0  0  0  0  0  0  0  0  0  0  0  0
  139.5380  115.3474  134.7195 C   0  0  0  0  0  0  0  0  0  0  0  0
  138.9977  115.5044  135.9925 N   0  0  0  0  0  0  0  0  0  0  0  0
  137.9266  116.3253  136.4186 C   0  0  0  0  0  0  0  0  0  0  0  0
  138.1336  117.1437  137.5281 C   0  0  0  0  0  0  0  0  0  0  0  0
  137.1910  117.9764  138.0390 C   0  0  0  0  0  0  0  0  0  0  0  0
  137.4849  119.0003  139.4459 Cl  0  0  0  0  0  0  0  0  0  0  0  0
  135.9611  118.0395  137.4571 C   0  0  0  0  0  0  0  0  0  0  0  0
  135.7131  117.2374  136.3454 C   0  0  0  0  0  0  0  0  0  0  0  0
  134.4731  117.3461  135.8120 F   0  0  0  0  0  0  0  0  0  0  0  0
  136.6850  116.3839  135.8249 C   0  0  0  0  0  0  0  0  0  0  0  0
  139.4856  116.3216  133.6886 N   0  0  0  0  0  0  0  0  0  0  0  0
  138.3577  117.1937  133.4332 C   0  0  0  0  0  0  0  0  0  0  0  0
  137.5765  116.5381  132.2852 C   0  0  0  0  0  0  0  0  0  0  0  0
  137.9515  115.0802  132.1493 C   0  0  1  0  0  0  0  0  0  0  0  0
  136.9090  114.1783  132.7722 C   0  0  0  0  0  0  0  0  0  0  0  0
  136.8841  114.2984  134.2753 C   0  0  0  0  0  0  0  0  0  0  0  0
  136.2864  115.6028  134.6609 C   0  0  0  0  0  0  0  0  0  0  0  0
  135.3623  116.0139  133.8749 O   0  0  0  0  0  0  0  0  0  0  0  0
  138.0808  114.7646  130.6753 C   0  0  0  0  0  0  0  0  0  0  0  0
  136.5599  114.9849  129.8058 Cl  0  0  0  0  0  0  0  0  0  0  0  0
  1  2  2  0
  2  3  1  0
  3  4  1  0
  4  5  2  0
  5  6  1  0
  6  7  1  0
  6  8  2  0
  8  9  1  0
  9 10  1  0
  9 11  2  0
  2 12  1  0
 12 13  1  0
 13 14  1  0
 14 15  1  0
 15 16  1  0
 16 17  1  0
 17 18  1  0
 18 19  2  0
 15 20  1  6
 20 21  1  0
 11  4  1  0
 18 11  1  0
M  END
>  <docking_score>  (2) 
-7.3730000000000002

$$$$

     RDKit          3D

 21 22  0  0  0  0  0  0  0  0999 V2000
  136.1898  117.4216  132.1282 O   0  0  0  0  0  0  0  0  0  0  0  0
  136.0756  116.9721  133.3044 C   0  0  0  0  0  0  0  0  0  0  0  0
  136.1740  117.8690  134.3642 N   0  0  0  0  0  0  0  0  0  0  0  0
  136.5677  117.6370  135.7036 C   0  0  0  0  0  0  0  0  0  0  0  0
  135.7439  118.1213  136.7186 C   0  0  0  0  0  0  0  0  0  0  0  0
  136.0057  117.9680  138.0418 C   0  0  0  0  0  0  0  0  0  0  0  0
  134.9417  118.5935  139.3031 Cl  0  0  0  0  0  0  0  0  0  0  0  0
  137.1305  117.3073  138.4339 C   0  0  0  0  0  0  0  0  0  0  0  0
  137.9810  116.8073  137.4503 C   0  0  0  0  0  0  0  0  0  0  0  0
  139.0809  116.1602  137.9035 F   0  0  0  0  0  0  0  0  0  0  0  0
  137.7071  116.9678  136.0927 C   0  0  0  0  0  0  0  0  0  0  0  0
  135.8545  115.5766  133.4388 N   0  0  0  0  0  0  0  0  0  0  0  0
  136.4177  114.7482  134.4851 C   0  0  0  0  0  0  0  0  0  0  0  0
  137.6492  114.0735  133.8638 C   0  0  0  0  0  0  0  0  0  0  0  0
  138.0952  114.8150  132.6244 C   0  0  1  0  0  0  0  0  0  0  0  0
  139.2858  115.7041  132.9076 C   0  0  0  0  0  0  0  0  0  0  0  0
  138.9211  116.8723  133.7888 C   0  0  0  0  0  0  0  0  0  0  0  0
  138.6845  116.3951  135.1759 C   0  0  0  0  0  0  0  0  0  0  0  0
  139.4229  115.4098  135.5291 O   0  0  0  0  0  0  0  0  0  0  0  0
  138.4642  113.7917  131.5730 C   0  0  0  0  0  0  0  0  0  0  0  0
  138.3786  114.4497  129.9367 Cl  0  0  0  0  0  0  0  0  0  0  0  0
  1  2  2  0
  2  3  1  0
  3  4  1  0
  4  5  2  0
  5  6  1  0
  6  7  1  0
  6  8  2  0
  8  9  1  0
  9 10  1  0
  9 11  2  0
  2 12  1  0
 12 13  1  0
 13 14  1  0
 14 15  1  0
 15 16  1  0
 16 17  1  0
 17 18  1  0
 18 19  2  0
 15 20  1  6
 20 21  1  0
 11  4  1  0
 18 11  1  0
M  END
>  <docking_score>  (3) 
-7.3559999999999999

$$$$
