
     RDKit          3D

 24 26  0  0  0  0  0  0  0  0999 V2000
  121.1394  121.9591  142.7540 O   0  0  0  0  0  0  0  0  0  0  0  0
  121.0929  123.2041  142.5797 C   0  0  0  0  0  0  0  0  0  0  0  0
  119.9528  123.6857  141.8489 N   0  0  0  0  0  0  0  0  0  0  0  0
  119.9088  124.8863  141.0510 C   0  0  0  0  0  0  0  0  0  0  0  0
  118.8450  124.8982  140.1763 C   0  0  0  0  0  0  0  0  0  0  0  0
  118.7046  126.0018  139.3613 C   0  0  0  0  0  0  0  0  0  0  0  0
  117.3761  126.1224  138.2018 Cl  0  0  0  0  0  0  0  0  0  0  0  0
  119.5829  127.0654  139.4022 C   0  0  0  0  0  0  0  0  0  0  0  0
  120.6450  127.0493  140.2781 C   0  0  0  0  0  0  0  0  0  0  0  0
  121.5441  128.0445  140.3793 F   0  0  0  0  0  0  0  0  0  0  0  0
  120.8026  125.9540  141.1018 C   0  0  0  0  0  0  0  0  0  0  0  0
  122.1769  123.9600  143.1312 N   0  0  0  0  0  0  0  0  0  0  0  0
  123.2270  123.0666  143.5231 C   0  0  0  0  0  0  0  0  0  0  0  0
  123.8655  123.6014  144.7682 C   0  0  0  0  0  0  0  0  0  0  0  0
  124.3492  124.9887  144.5026 C   0  0  1  0  0  0  0  0  0  0  0  0
  123.3029  125.9402  144.0618 C   0  0  0  0  0  0  0  0  0  0  0  0
  122.1967  125.3886  143.2655 C   0  0  1  0  0  0  0  0  0  0  0  0
  121.9659  126.0771  141.9720 C   0  0  0  0  0  0  0  0  0  0  0  0
  122.8708  126.8691  141.5542 O   0  0  0  0  0  0  0  0  0  0  0  0
  124.9621  125.5153  145.8033 C   0  0  0  0  0  0  0  0  0  0  0  0
  125.4473  124.9566  143.4661 C   0  0  0  0  0  0  0  0  0  0  0  0
  126.8119  124.7574  144.0591 C   0  0  0  0  0  0  0  0  0  0  0  0
  128.1135  125.1875  142.8848 S   0  0  0  0  0  0  0  0  0  0  0  0
  129.2849  125.7225  143.7153 O   0  0  0  0  0  0  0  0  0  0  0  0
  1  2  2  0
  2  3  1  0
  3  4  1  0
  4  5  2  0
  5  6  1  0
  6  7  1  0
  6  8  2  0
  8  9  1  0
  9 10  1  0
  9 11  2  0
  2 12  1  0
 12 13  1  0
 13 14  1  0
 14 15  1  0
 15 16  1  0
 17 16  1  6
 17 18  1  0
 18 19  2  0
 15 20  1  1
 15 21  1  0
 21 22  1  0
 22 23  1  0
 23 24  2  0
 11  4  1  0
 18 11  1  0
 17 12  1  0
M  END
>  <docking_score>  (1) 
-7.8520000000000003

$$$$

     RDKit          3D

 24 26  0  0  0  0  0  0  0  0999 V2000
  131.1569  124.1944  139.6970 O   0  0  0  0  0  0  0  0  0  0  0  0
  132.2127  124.7475  139.2947 C   0  0  0  0  0  0  0  0  0  0  0  0
  132.0527  126.0694  138.7535 N   0  0  0  0  0  0  0  0  0  0  0  0
  132.9032  126.6836  137.7638 C   0  0  0  0  0  0  0  0  0  0  0  0
  132.3094  127.7704  137.1611 C   0  0  0  0  0  0  0  0  0  0  0  0
  133.0345  128.4367  136.1957 C   0  0  0  0  0  0  0  0  0  0  0  0
  132.3702  129.8441  135.3580 Cl  0  0  0  0  0  0  0  0  0  0  0  0
  134.3074  128.0485  135.8303 C   0  0  0  0  0  0  0  0  0  0  0  0
  134.8971  126.9615  136.4353 C   0  0  0  0  0  0  0  0  0  0  0  0
  136.1319  126.5197  136.1365 F   0  0  0  0  0  0  0  0  0  0  0  0
  134.1878  126.2817  137.4037 C   0  0  0  0  0  0  0  0  0  0  0  0
  133.4170  123.9852  139.4324 N   0  0  0  0  0  0  0  0  0  0  0  0
  133.0853  122.6278  139.7512 C   0  0  0  0  0  0  0  0  0  0  0  0
  134.1206  122.0947  140.6935 C   0  0  0  0  0  0  0  0  0  0  0  0
  135.4649  122.2326  140.0586 C   0  0  1  0  0  0  0  0  0  0  0  0
  135.8372  123.6156  139.6808 C   0  0  0  0  0  0  0  0  0  0  0  0
  134.7433  124.5100  139.2737 C   0  0  1  0  0  0  0  0  0  0  0  0
  134.9363  125.1577  137.9533 C   0  0  0  0  0  0  0  0  0  0  0  0
  135.8521  124.6983  137.1978 O   0  0  0  0  0  0  0  0  0  0  0  0
  136.4987  121.7123  141.0613 C   0  0  0  0  0  0  0  0  0  0  0  0
  135.5427  121.3541  138.8324 C   0  0  0  0  0  0  0  0  0  0  0  0
  136.5755  120.2709  138.9479 C   0  0  0  0  0  0  0  0  0  0  0  0
  136.0562  118.7671  138.0952 S   0  0  0  0  0  0  0  0  0  0  0  0
  134.9673  118.1310  138.9658 O   0  0  0  0  0  0  0  0  0  0  0  0
  1  2  2  0
  2  3  1  0
  3  4  1  0
  4  5  2  0
  5  6  1  0
  6  7  1  0
  6  8  2  0
  8  9  1  0
  9 10  1  0
  9 11  2  0
  2 12  1  0
 12 13  1  0
 13 14  1  0
 14 15  1  0
 15 16  1  0
 17 16  1  6
 17 18  1  0
 18 19  2  0
 15 20  1  1
 15 21  1  0
 21 22  1  0
 22 23  1  0
 23 24  2  0
 11  4  1  0
 18 11  1  0
 17 12  1  0
M  END
>  <docking_score>  (2) 
-6.9050000000000002

$$$$
