
     RDKit          3D

 29 32  0  0  0  0  0  0  0  0999 V2000
  137.2207  120.9306  140.5951 O   0  0  0  0  0  0  0  0  0  0  0  0
  136.4406  121.4653  139.7578 C   0  0  0  0  0  0  0  0  0  0  0  0
  135.9655  120.6321  138.7219 N   0  0  0  0  0  0  0  0  0  0  0  0
  136.3969  119.2527  138.6885 C   0  0  1  0  0  0  0  0  0  0  0  0
  135.2977  118.2422  138.9426 C   0  0  0  0  0  0  0  0  0  0  0  0
  135.8711  118.4200  137.5555 C   0  0  2  0  0  0  0  0  0  0  0  0
  136.7459  117.3187  137.0518 C   0  0  0  0  0  0  0  0  0  0  0  0
  136.5489  116.7136  135.8369 C   0  0  0  0  0  0  0  0  0  0  0  0
  137.3698  115.7089  135.4098 C   0  0  0  0  0  0  0  0  0  0  0  0
  138.4095  115.3002  136.2131 C   0  0  0  0  0  0  0  0  0  0  0  0
  138.6123  115.8991  137.4260 C   0  0  0  0  0  0  0  0  0  0  0  0
  137.7911  116.9061  137.8563 C   0  0  0  0  0  0  0  0  0  0  0  0
  136.1106  122.8359  139.9242 N   0  0  0  0  0  0  0  0  0  0  0  0
  135.3916  123.4522  138.7957 C   0  0  0  0  0  0  0  0  0  0  0  0
  134.2265  124.1887  139.4036 C   0  0  0  0  0  0  0  0  0  0  0  0
  134.2307  125.6242  139.0056 C   0  0  1  0  0  0  0  0  0  0  0  0
  135.1643  126.4736  139.7406 C   0  0  0  0  0  0  0  0  0  0  0  0
  135.5570  126.4080  140.9299 N   0  0  0  0  0  0  0  0  0  0  0  0
  135.2103  125.4915  141.9005 C   0  0  0  0  0  0  0  0  0  0  0  0
  134.3885  125.8764  143.0650 C   0  0  0  0  0  0  0  0  0  0  0  0
  135.0006  126.1879  144.2820 C   0  0  0  0  0  0  0  0  0  0  0  0
  134.2854  126.5598  145.4018 C   0  0  0  0  0  0  0  0  0  0  0  0
  132.9091  126.6307  145.3299 C   0  0  0  0  0  0  0  0  0  0  0  0
  132.2979  126.3261  144.1362 C   0  0  0  0  0  0  0  0  0  0  0  0
  133.0302  125.9580  143.0331 C   0  0  0  0  0  0  0  0  0  0  0  0
  135.6000  124.2564  141.8654 N   0  0  0  0  0  0  0  0  0  0  0  0
  136.3621  123.6413  140.9615 O   0  0  0  0  0  0  0  0  0  0  0  0
  134.4873  125.7506  137.5321 C   0  0  0  0  0  0  0  0  0  0  0  0
  135.4197  126.9191  137.3129 C   0  0  0  0  0  0  0  0  0  0  0  0
  1  2  2  0
  2  3  1  0
  4  3  1  6
  4  5  1  0
  5  6  1  0
  6  7  1  1
  7  8  2  0
  8  9  1  0
  9 10  2  0
 10 11  1  0
 11 12  2  0
  2 13  1  0
 13 14  1  0
 14 15  1  0
 15 16  1  0
 16 17  1  0
 17 18  2  3
 18 19  1  0
 19 20  1  0
 20 21  2  0
 21 22  1  0
 22 23  2  0
 23 24  1  0
 24 25  2  0
 19 26  2  3
 26 27  1  0
 16 28  1  6
 28 29  1  0
  6  4  1  0
 12  7  1  0
 27 13  1  0
 25 20  1  0
M  END
>  <docking_score>  (1) 
-8.5700000000000003

$$$$

     RDKit          3D

 29 32  0  0  0  0  0  0  0  0999 V2000
  135.6019  128.0654  137.0553 O   0  0  0  0  0  0  0  0  0  0  0  0
  134.5097  128.3715  137.6113 C   0  0  0  0  0  0  0  0  0  0  0  0
  133.9645  129.6290  137.2735 N   0  0  0  0  0  0  0  0  0  0  0  0
  134.6792  130.4654  136.3356 C   0  0  1  0  0  0  0  0  0  0  0  0
  134.0634  131.8310  136.1128 C   0  0  0  0  0  0  0  0  0  0  0  0
  135.3418  131.6858  136.9058 C   0  0  2  0  0  0  0  0  0  0  0  0
  136.5935  132.1588  136.2412 C   0  0  0  0  0  0  0  0  0  0  0  0
  136.5839  132.9120  135.0952 C   0  0  0  0  0  0  0  0  0  0  0  0
  137.7492  133.3263  134.5155 C   0  0  0  0  0  0  0  0  0  0  0  0
  138.9495  132.9810  135.0930 C   0  0  0  0  0  0  0  0  0  0  0  0
  138.9670  132.2301  136.2361 C   0  0  0  0  0  0  0  0  0  0  0  0
  137.8005  131.8137  136.8189 C   0  0  0  0  0  0  0  0  0  0  0  0
  133.9298  127.4419  138.5140 N   0  0  0  0  0  0  0  0  0  0  0  0
  132.4570  127.4073  138.5225 C   0  0  0  0  0  0  0  0  0  0  0  0
  132.0796  125.9514  138.4371 C   0  0  0  0  0  0  0  0  0  0  0  0
  131.1918  125.5585  139.5669 C   0  0  1  0  0  0  0  0  0  0  0  0
  131.8684  125.3190  140.8391 C   0  0  0  0  0  0  0  0  0  0  0  0
  133.0110  124.8596  141.0763 N   0  0  0  0  0  0  0  0  0  0  0  0
  133.9736  124.4436  140.1804 C   0  0  0  0  0  0  0  0  0  0  0  0
  134.3363  123.0188  140.0458 C   0  0  0  0  0  0  0  0  0  0  0  0
  135.6392  122.6583  139.6920 C   0  0  0  0  0  0  0  0  0  0  0  0
  136.0378  121.3442  139.5574 C   0  0  0  0  0  0  0  0  0  0  0  0
  135.1219  120.3359  139.7783 C   0  0  0  0  0  0  0  0  0  0  0  0
  133.8373  120.6813  140.1271 C   0  0  0  0  0  0  0  0  0  0  0  0
  133.4621  121.9970  140.2556 C   0  0  0  0  0  0  0  0  0  0  0  0
  134.6299  125.2690  139.4277 N   0  0  0  0  0  0  0  0  0  0  0  0
  134.5352  126.5963  139.3544 O   0  0  0  0  0  0  0  0  0  0  0  0
  130.1121  126.5840  139.7558 C   0  0  0  0  0  0  0  0  0  0  0  0
  129.9023  126.7825  141.2388 C   0  0  0  0  0  0  0  0  0  0  0  0
  1  2  2  0
  2  3  1  0
  4  3  1  1
  4  5  1  0
  5  6  1  0
  6  7  1  6
  7  8  2  0
  8  9  1  0
  9 10  2  0
 10 11  1  0
 11 12  2  0
  2 13  1  0
 13 14  1  0
 14 15  1  0
 15 16  1  0
 16 17  1  0
 17 18  2  3
 18 19  1  0
 19 20  1  0
 20 21  2  0
 21 22  1  0
 22 23  2  0
 23 24  1  0
 24 25  2  0
 19 26  2  3
 26 27  1  0
 16 28  1  1
 28 29  1  0
  6  4  1  0
 12  7  1  0
 27 13  1  0
 25 20  1  0
M  END
>  <docking_score>  (2) 
-8.5009999999999994

$$$$

     RDKit          3D

 29 32  0  0  0  0  0  0  0  0999 V2000
  132.7917  124.6222  138.5392 O   0  0  0  0  0  0  0  0  0  0  0  0
  132.3507  124.3449  139.6899 C   0  0  0  0  0  0  0  0  0  0  0  0
  132.9997  123.2945  140.3742 N   0  0  0  0  0  0  0  0  0  0  0  0
  134.1006  122.6194  139.7243 C   0  0  1  0  0  0  0  0  0  0  0  0
  135.4084  122.6689  140.4865 C   0  0  0  0  0  0  0  0  0  0  0  0
  134.6163  121.3843  140.4043 C   0  0  2  0  0  0  0  0  0  0  0  0
  135.1817  120.3094  139.5344 C   0  0  0  0  0  0  0  0  0  0  0  0
  134.7374  119.0126  139.5768 C   0  0  0  0  0  0  0  0  0  0  0  0
  135.2790  118.0562  138.7658 C   0  0  0  0  0  0  0  0  0  0  0  0
  136.2857  118.4027  137.8940 C   0  0  0  0  0  0  0  0  0  0  0  0
  136.7339  119.6941  137.8461 C   0  0  0  0  0  0  0  0  0  0  0  0
  136.1927  120.6542  138.6577 C   0  0  0  0  0  0  0  0  0  0  0  0
  131.2581  125.0993  140.1923 N   0  0  0  0  0  0  0  0  0  0  0  0
  130.9714  124.9146  141.6256 C   0  0  0  0  0  0  0  0  0  0  0  0
  130.8227  126.3005  142.1969 C   0  0  0  0  0  0  0  0  0  0  0  0
  129.5106  126.4614  142.8837 C   0  0  1  0  0  0  0  0  0  0  0  0
  128.3683  126.6909  142.0028 C   0  0  0  0  0  0  0  0  0  0  0  0
  128.2988  127.2929  140.9048 N   0  0  0  0  0  0  0  0  0  0  0  0
  129.3065  127.9205  140.2029 C   0  0  0  0  0  0  0  0  0  0  0  0
  129.3472  129.3896  140.0612 C   0  0  0  0  0  0  0  0  0  0  0  0
  130.1169  129.9748  139.0523 C   0  0  0  0  0  0  0  0  0  0  0  0
  130.1887  131.3403  138.8676 C   0  0  0  0  0  0  0  0  0  0  0  0
  129.4764  132.1725  139.7068 C   0  0  0  0  0  0  0  0  0  0  0  0
  128.7160  131.6054  140.7026 C   0  0  0  0  0  0  0  0  0  0  0  0
  128.6589  130.2424  140.8683 C   0  0  0  0  0  0  0  0  0  0  0  0
  130.2553  127.2676  139.6096 N   0  0  0  0  0  0  0  0  0  0  0  0
  130.4566  125.9517  139.5452 O   0  0  0  0  0  0  0  0  0  0  0  0
  129.2390  125.2751  143.7623 C   0  0  0  0  0  0  0  0  0  0  0  0
  127.7585  125.2374  144.0618 C   0  0  0  0  0  0  0  0  0  0  0  0
  1  2  2  0
  2  3  1  0
  4  3  1  1
  4  5  1  0
  5  6  1  0
  6  7  1  6
  7  8  2  0
  8  9  1  0
  9 10  2  0
 10 11  1  0
 11 12  2  0
  2 13  1  0
 13 14  1  0
 14 15  1  0
 15 16  1  0
 16 17  1  0
 17 18  2  3
 18 19  1  0
 19 20  1  0
 20 21  2  0
 21 22  1  0
 22 23  2  0
 23 24  1  0
 24 25  2  0
 19 26  2  3
 26 27  1  0
 16 28  1  6
 28 29  1  0
  6  4  1  0
 12  7  1  0
 27 13  1  0
 25 20  1  0
M  END
>  <docking_score>  (3) 
-8.3740000000000006

$$$$
