
     RDKit          3D

 21 23  0  0  0  0  0  0  0  0999 V2000
  139.9221  113.9798  138.0993 O   0  0  0  0  0  0  0  0  0  0  0  0
  139.2260  114.5615  137.2479 C   0  0  0  0  0  0  0  0  0  0  0  0
  138.6471  115.7721  137.7400 N   0  0  0  0  0  0  0  0  0  0  0  0
  137.8570  116.8339  137.2035 C   0  0  0  0  0  0  0  0  0  0  0  0
  137.1118  117.3466  138.2541 C   0  0  0  0  0  0  0  0  0  0  0  0
  136.2523  118.3970  138.0034 C   0  0  0  0  0  0  0  0  0  0  0  0
  135.2665  119.1180  139.2572 Cl  0  0  0  0  0  0  0  0  0  0  0  0
  136.1555  118.9080  136.7251 C   0  0  0  0  0  0  0  0  0  0  0  0
  136.9094  118.3766  135.7026 C   0  0  0  0  0  0  0  0  0  0  0  0
  136.7833  118.9092  134.4608 F   0  0  0  0  0  0  0  0  0  0  0  0
  137.7796  117.3249  135.9187 C   0  0  0  0  0  0  0  0  0  0  0  0
  139.1476  113.9121  135.9717 N   0  0  0  0  0  0  0  0  0  0  0  0
  138.6669  114.3183  134.6743 C   0  0  1  0  0  0  0  0  0  0  0  0
  137.2017  114.0296  134.4747 C   0  0  0  0  0  0  0  0  0  0  0  0
  137.0143  113.6003  133.0348 C   0  0  0  0  0  0  0  0  0  0  0  0
  136.2579  114.9420  132.0454 S   0  0  0  0  0  0  0  0  0  0  0  0
  137.5812  116.6308  131.9860 S   0  0  0  0  0  0  0  0  0  0  0  0
  137.4173  117.5474  133.5240 C   0  0  0  0  0  0  0  0  0  0  0  0
  138.3563  117.0912  134.5866 C   0  0  2  0  0  0  0  0  0  0  0  0
  138.9078  115.7470  134.3899 C   0  0  0  0  0  0  0  0  0  0  0  0
  139.9671  115.8425  133.7485 O   0  0  0  0  0  0  0  0  0  0  0  0
  1  2  2  0
  2  3  1  0
  3  4  1  0
  4  5  2  0
  5  6  1  0
  6  7  1  0
  6  8  2  0
  8  9  1  0
  9 10  1  0
  9 11  2  0
  2 12  1  0
 12 13  1  0
 13 14  1  1
 14 15  1  0
 15 16  1  0
 16 17  1  0
 17 18  1  0
 19 18  1  6
 19 20  1  0
 20 21  2  0
 11  4  1  0
 19 11  1  0
 20 13  1  0
M  END
>  <docking_score>  (1) 
-7.6749999999999998

$$$$

     RDKit          3D

 21 23  0  0  0  0  0  0  0  0999 V2000
  130.4964  141.5132  139.3896 O   0  0  0  0  0  0  0  0  0  0  0  0
  129.9928  140.6890  140.1737 C   0  0  0  0  0  0  0  0  0  0  0  0
  130.0368  139.3509  139.6733 N   0  0  0  0  0  0  0  0  0  0  0  0
  129.6891  138.0532  140.1575 C   0  0  0  0  0  0  0  0  0  0  0  0
  129.3719  137.2852  139.0477 C   0  0  0  0  0  0  0  0  0  0  0  0
  128.9959  135.9711  139.2394 C   0  0  0  0  0  0  0  0  0  0  0  0
  128.5754  134.9153  137.9082 Cl  0  0  0  0  0  0  0  0  0  0  0  0
  128.9450  135.4568  140.5190 C   0  0  0  0  0  0  0  0  0  0  0  0
  129.2661  136.2455  141.6012 C   0  0  0  0  0  0  0  0  0  0  0  0
  129.2027  135.6996  142.8420 F   0  0  0  0  0  0  0  0  0  0  0  0
  129.6465  137.5650  141.4450 C   0  0  0  0  0  0  0  0  0  0  0  0
  129.4809  141.2380  141.3956 N   0  0  0  0  0  0  0  0  0  0  0  0
  129.0383  140.6597  142.6402 C   0  0  1  0  0  0  0  0  0  0  0  0
  127.5720  140.3132  142.6375 C   0  0  0  0  0  0  0  0  0  0  0  0
  127.0302  140.6156  144.0187 C   0  0  0  0  0  0  0  0  0  0  0  0
  126.7664  139.0739  144.9699 S   0  0  0  0  0  0  0  0  0  0  0  0
  128.6462  138.0857  145.2810 S   0  0  0  0  0  0  0  0  0  0  0  0
  129.0855  137.1948  143.7824 C   0  0  0  0  0  0  0  0  0  0  0  0
  129.8885  138.0072  142.8261 C   0  0  2  0  0  0  0  0  0  0  0  0
  129.8050  139.4576  143.0238 C   0  0  0  0  0  0  0  0  0  0  0  0
  130.7114  139.8054  143.7985 O   0  0  0  0  0  0  0  0  0  0  0  0
  1  2  2  0
  2  3  1  0
  3  4  1  0
  4  5  2  0
  5  6  1  0
  6  7  1  0
  6  8  2  0
  8  9  1  0
  9 10  1  0
  9 11  2  0
  2 12  1  0
 12 13  1  0
 13 14  1  6
 14 15  1  0
 15 16  1  0
 16 17  1  0
 17 18  1  0
 19 18  1  1
 19 20  1  0
 20 21  2  0
 11  4  1  0
 19 11  1  0
 20 13  1  0
M  END
>  <docking_score>  (2) 
-6.9509999999999996

$$$$

     RDKit          3D

 21 23  0  0  0  0  0  0  0  0999 V2000
  130.8814  140.9226  140.6572 O   0  0  0  0  0  0  0  0  0  0  0  0
  130.3440  139.9835  141.2712 C   0  0  0  0  0  0  0  0  0  0  0  0
  130.2832  138.7814  140.5003 N   0  0  0  0  0  0  0  0  0  0  0  0
  129.8611  137.4343  140.7158 C   0  0  0  0  0  0  0  0  0  0  0  0
  129.4624  136.9394  139.4836 C   0  0  0  0  0  0  0  0  0  0  0  0
  129.0031  135.6399  139.4111 C   0  0  0  0  0  0  0  0  0  0  0  0
  128.4759  134.9173  137.9066 Cl  0  0  0  0  0  0  0  0  0  0  0  0
  128.9516  134.8705  140.5556 C   0  0  0  0  0  0  0  0  0  0  0  0
  129.3548  135.3913  141.7650 C   0  0  0  0  0  0  0  0  0  0  0  0
  129.2877  134.6001  142.8655 F   0  0  0  0  0  0  0  0  0  0  0  0
  129.8199  136.6883  141.8732 C   0  0  0  0  0  0  0  0  0  0  0  0
  129.9038  140.2917  142.6008 N   0  0  0  0  0  0  0  0  0  0  0  0
  129.4565  139.4911  143.7136 C   0  0  1  0  0  0  0  0  0  0  0  0
  127.9705  139.2431  143.6980 C   0  0  0  0  0  0  0  0  0  0  0  0
  127.4880  139.2789  145.1329 C   0  0  0  0  0  0  0  0  0  0  0  0
  127.1454  137.5898  145.7501 S   0  0  0  0  0  0  0  0  0  0  0  0
  128.9611  136.4455  145.7707 S   0  0  0  0  0  0  0  0  0  0  0  0
  129.2981  135.8668  144.1021 C   0  0  0  0  0  0  0  0  0  0  0  0
  130.1286  136.8126  143.3053 C   0  0  2  0  0  0  0  0  0  0  0  0
  130.1495  138.1906  143.8055 C   0  0  0  0  0  0  0  0  0  0  0  0
  131.0981  138.3107  144.5983 O   0  0  0  0  0  0  0  0  0  0  0  0
  1  2  2  0
  2  3  1  0
  3  4  1  0
  4  5  2  0
  5  6  1  0
  6  7  1  0
  6  8  2  0
  8  9  1  0
  9 10  1  0
  9 11  2  0
  2 12  1  0
 12 13  1  0
 13 14  1  6
 14 15  1  0
 15 16  1  0
 16 17  1  0
 17 18  1  0
 19 18  1  1
 19 20  1  0
 20 21  2  0
 11  4  1  0
 19 11  1  0
 20 13  1  0
M  END
>  <docking_score>  (3) 
-6.843

$$$$
