
     RDKit          3D

 20 22  0  0  0  0  0  0  0  0999 V2000
  121.5639  127.9776  139.9303 O   0  0  0  0  0  0  0  0  0  0  0  0
  121.5368  126.8548  140.4433 C   0  0  0  0  0  0  0  0  0  0  0  0
  122.3351  126.6808  141.6152 N   0  0  0  0  0  0  0  0  0  0  0  0
  122.6338  125.6211  142.5117 C   0  0  0  0  0  0  0  0  0  0  0  0
  123.3436  126.1568  143.5746 C   0  0  0  0  0  0  0  0  0  0  0  0
  123.7798  125.3631  144.6213 C   0  0  0  0  0  0  0  0  0  0  0  0
  124.6713  126.0483  145.9519 Cl  0  0  0  0  0  0  0  0  0  0  0  0
  123.4908  124.0194  144.5831 C   0  0  0  0  0  0  0  0  0  0  0  0
  122.7826  123.4675  143.5288 C   0  0  0  0  0  0  0  0  0  0  0  0
  122.3989  121.7625  143.4506 Cl  0  0  0  0  0  0  0  0  0  0  0  0
  122.3420  124.2712  142.4710 C   0  0  0  0  0  0  0  0  0  0  0  0
  120.7031  125.8774  139.7873 N   0  0  0  0  0  0  0  0  0  0  0  0
  120.1794  124.6043  139.9170 C   0  0  2  0  0  0  0  0  0  0  0  0
  118.7706  124.4160  140.3044 C   0  0  0  0  0  0  0  0  0  0  0  0
  118.6631  122.9323  140.3876 C   0  0  0  0  0  0  0  0  0  0  0  0
  119.9859  122.2969  140.1478 C   0  0  0  0  0  0  0  0  0  0  0  0
  121.0011  123.4491  140.2423 C   0  0  2  0  0  0  0  0  0  0  0  0
  121.6426  123.3844  141.5487 C   0  0  0  0  0  0  0  0  0  0  0  0
  121.5841  122.2288  142.0387 O   0  0  0  0  0  0  0  0  0  0  0  0
  117.6256  122.3432  140.6207 O   0  0  0  0  0  0  0  0  0  0  0  0
  1  2  2  0
  2  3  1  0
  3  4  1  0
  4  5  2  0
  5  6  1  0
  6  7  1  0
  6  8  2  0
  8  9  1  0
  9 10  1  0
  9 11  2  0
  2 12  1  0
 12 13  1  0
 13 14  1  1
 14 15  1  0
 15 16  1  0
 17 16  1  1
 17 18  1  0
 18 19  2  0
 15 20  2  0
 11  4  1  0
 18 11  1  0
 17 13  1  0
M  END
>  <docking_score>  (1) 
-7.5410000000000004

$$$$

     RDKit          3D

 20 22  0  0  0  0  0  0  0  0999 V2000
  120.8630  121.1684  144.2458 O   0  0  0  0  0  0  0  0  0  0  0  0
  121.1507  122.1194  143.5127 C   0  0  0  0  0  0  0  0  0  0  0  0
  122.3892  122.7746  143.7917 N   0  0  0  0  0  0  0  0  0  0  0  0
  123.1150  123.8756  143.2655 C   0  0  0  0  0  0  0  0  0  0  0  0
  124.3622  123.8845  143.8696 C   0  0  0  0  0  0  0  0  0  0  0  0
  125.3053  124.8488  143.5586 C   0  0  0  0  0  0  0  0  0  0  0  0
  126.8697  124.8494  144.3248 Cl  0  0  0  0  0  0  0  0  0  0  0  0
  124.9745  125.8063  142.6290 C   0  0  0  0  0  0  0  0  0  0  0  0
  123.7329  125.8123  142.0157 C   0  0  0  0  0  0  0  0  0  0  0  0
  123.2815  127.0161  140.8293 Cl  0  0  0  0  0  0  0  0  0  0  0  0
  122.7802  124.8365  142.3310 C   0  0  0  0  0  0  0  0  0  0  0  0
  120.1962  122.4348  142.4783 N   0  0  0  0  0  0  0  0  0  0  0  0
  120.0011  123.2144  141.3532 C   0  0  2  0  0  0  0  0  0  0  0  0
  120.1036  122.6191  140.0095 C   0  0  0  0  0  0  0  0  0  0  0  0
  119.8957  123.8004  139.1257 C   0  0  0  0  0  0  0  0  0  0  0  0
  119.7716  125.0431  139.9327 C   0  0  0  0  0  0  0  0  0  0  0  0
  120.2448  124.6483  141.3424 C   0  0  2  0  0  0  0  0  0  0  0  0
  121.6069  125.1343  141.5179 C   0  0  0  0  0  0  0  0  0  0  0  0
  121.8611  126.0939  140.7475 O   0  0  0  0  0  0  0  0  0  0  0  0
  119.8386  123.7340  137.9132 O   0  0  0  0  0  0  0  0  0  0  0  0
  1  2  2  0
  2  3  1  0
  3  4  1  0
  4  5  2  0
  5  6  1  0
  6  7  1  0
  6  8  2  0
  8  9  1  0
  9 10  1  0
  9 11  2  0
  2 12  1  0
 12 13  1  0
 13 14  1  6
 14 15  1  0
 15 16  1  0
 17 16  1  6
 17 18  1  0
 18 19  2  0
 15 20  2  0
 11  4  1  0
 18 11  1  0
 17 13  1  0
M  END
>  <docking_score>  (2) 
-7.4119999999999999

$$$$

     RDKit          3D

 20 22  0  0  0  0  0  0  0  0999 V2000
  140.8924  131.6640  139.5123 O   0  0  0  0  0  0  0  0  0  0  0  0
  140.7771  132.0674  138.3510 C   0  0  0  0  0  0  0  0  0  0  0  0
  139.4520  132.0725  137.8171 N   0  0  0  0  0  0  0  0  0  0  0  0
  138.8386  132.4140  136.5830 C   0  0  0  0  0  0  0  0  0  0  0  0
  137.4660  132.3709  136.7693 C   0  0  0  0  0  0  0  0  0  0  0  0
  136.5905  132.6592  135.7368 C   0  0  0  0  0  0  0  0  0  0  0  0
  134.8670  132.6016  135.9835 Cl  0  0  0  0  0  0  0  0  0  0  0  0
  137.1170  132.9922  134.5111 C   0  0  0  0  0  0  0  0  0  0  0  0
  138.4860  133.0401  134.3073 C   0  0  0  0  0  0  0  0  0  0  0  0
  139.1872  133.4601  132.7607 Cl  0  0  0  0  0  0  0  0  0  0  0  0
  139.3703  132.7484  135.3524 C   0  0  0  0  0  0  0  0  0  0  0  0
  141.9961  132.4767  137.6974 N   0  0  0  0  0  0  0  0  0  0  0  0
  142.4899  133.0910  136.5613 C   0  0  2  0  0  0  0  0  0  0  0  0
  142.9553  134.4877  136.6143 C   0  0  0  0  0  0  0  0  0  0  0  0
  143.3246  134.7501  135.1949 C   0  0  0  0  0  0  0  0  0  0  0  0
  142.9952  133.5771  134.3425 C   0  0  0  0  0  0  0  0  0  0  0  0
  142.0943  132.6909  135.2201 C   0  0  2  0  0  0  0  0  0  0  0  0
  140.7132  132.8910  134.8021 C   0  0  0  0  0  0  0  0  0  0  0  0
  140.6413  133.3105  133.6198 O   0  0  0  0  0  0  0  0  0  0  0  0
  143.8255  135.7883  134.8090 O   0  0  0  0  0  0  0  0  0  0  0  0
  1  2  2  0
  2  3  1  0
  3  4  1  0
  4  5  2  0
  5  6  1  0
  6  7  1  0
  6  8  2  0
  8  9  1  0
  9 10  1  0
  9 11  2  0
  2 12  1  0
 12 13  1  0
 13 14  1  1
 14 15  1  0
 15 16  1  0
 17 16  1  6
 17 18  1  0
 18 19  2  0
 15 20  2  0
 11  4  1  0
 18 11  1  0
 17 13  1  0
M  END
>  <docking_score>  (3) 
-7.165

$$$$
