
     RDKit          3D

 21 23  0  0  0  0  0  0  0  0999 V2000
  129.6995  124.2000  141.0988 O   0  0  0  0  0  0  0  0  0  0  0  0
  130.6853  124.5514  140.3698 C   0  0  0  0  0  0  0  0  0  0  0  0
  131.6149  123.5031  140.1925 N   0  0  0  0  0  0  0  0  0  0  0  0
  132.9671  123.4082  139.7597 C   0  0  0  0  0  0  0  0  0  0  0  0
  133.4807  122.2235  140.2363 C   0  0  0  0  0  0  0  0  0  0  0  0
  134.7944  121.8506  139.9725 C   0  0  0  0  0  0  0  0  0  0  0  0
  135.4240  120.3295  140.5950 Cl  0  0  0  0  0  0  0  0  0  0  0  0
  135.5617  122.7108  139.2170 C   0  0  0  0  0  0  0  0  0  0  0  0
  135.0385  123.9075  138.7373 C   0  0  0  0  0  0  0  0  0  0  0  0
  135.7754  124.7656  137.9939 F   0  0  0  0  0  0  0  0  0  0  0  0
  133.7348  124.2698  139.0033 C   0  0  0  0  0  0  0  0  0  0  0  0
  130.6105  125.8915  139.9199 N   0  0  0  0  0  0  0  0  0  0  0  0
  131.3428  126.7638  139.0317 C   0  0  0  0  0  0  0  0  0  0  0  0
  130.6860  128.0411  138.7804 C   0  0  0  0  0  0  0  0  0  0  0  0
  131.0038  128.5711  137.4318 C   0  0  0  0  0  0  0  0  0  0  0  0
  132.8324  128.0442  137.4786 S   0  0  1  0  0  0  0  0  0  0  0  0
  132.4960  126.5752  138.4443 C   0  0  0  0  0  0  0  0  0  0  0  0
  133.5394  125.5748  138.3454 C   0  0  0  0  0  0  0  0  0  0  0  0
  134.4476  125.8666  137.5558 O   0  0  0  0  0  0  0  0  0  0  0  0
  133.3437  127.7117  135.7277 C   0  0  0  0  0  0  0  0  0  0  0  0
  132.4708  128.4262  134.9324 F   0  0  0  0  0  0  0  0  0  0  0  0
  1  2  2  0
  2  3  1  0
  3  4  1  0
  4  5  2  0
  5  6  1  0
  6  7  1  0
  6  8  2  0
  8  9  1  0
  9 10  1  0
  9 11  2  0
  2 12  1  0
 12 13  1  0
 13 14  1  0
 14 15  1  0
 15 16  1  0
 16 17  1  0
 17 18  1  0
 18 19  2  0
 16 20  1  6
 20 21  1  0
 11  4  1  0
 18 11  1  0
 13 17  2  0
M  END
>  <docking_score>  (1) 
-6.968

$$$$

     RDKit          3D

 21 23  0  0  0  0  0  0  0  0999 V2000
  141.2654  135.2473  141.9889 O   0  0  0  0  0  0  0  0  0  0  0  0
  141.6869  135.2988  140.7863 C   0  0  0  0  0  0  0  0  0  0  0  0
  142.8204  136.1311  140.6561 N   0  0  0  0  0  0  0  0  0  0  0  0
  143.4928  136.7684  139.5761 C   0  0  0  0  0  0  0  0  0  0  0  0
  144.2303  137.8092  140.0933 C   0  0  0  0  0  0  0  0  0  0  0  0
  145.0014  138.6236  139.2706 C   0  0  0  0  0  0  0  0  0  0  0  0
  145.9344  139.9471  139.9601 Cl  0  0  0  0  0  0  0  0  0  0  0  0
  144.9992  138.3499  137.9199 C   0  0  0  0  0  0  0  0  0  0  0  0
  144.2520  137.2968  137.4013 C   0  0  0  0  0  0  0  0  0  0  0  0
  144.2365  137.0116  136.0782 F   0  0  0  0  0  0  0  0  0  0  0  0
  143.4902  136.4939  138.2239 C   0  0  0  0  0  0  0  0  0  0  0  0
  140.9258  134.5185  139.8831 N   0  0  0  0  0  0  0  0  0  0  0  0
  140.9858  134.1279  138.4939 C   0  0  0  0  0  0  0  0  0  0  0  0
  140.0063  133.1147  138.1200 C   0  0  0  0  0  0  0  0  0  0  0  0
  140.4993  132.2465  137.0228 C   0  0  0  0  0  0  0  0  0  0  0  0
  141.3284  133.6622  136.0575 S   0  0  1  0  0  0  0  0  0  0  0  0
  141.7725  134.5584  137.5419 C   0  0  0  0  0  0  0  0  0  0  0  0
  142.8510  135.5041  137.3375 C   0  0  0  0  0  0  0  0  0  0  0  0
  143.3348  135.4820  136.1978 O   0  0  0  0  0  0  0  0  0  0  0  0
  142.7655  132.9256  135.1464 C   0  0  0  0  0  0  0  0  0  0  0  0
  142.6927  131.5632  135.3553 F   0  0  0  0  0  0  0  0  0  0  0  0
  1  2  2  0
  2  3  1  0
  3  4  1  0
  4  5  2  0
  5  6  1  0
  6  7  1  0
  6  8  2  0
  8  9  1  0
  9 10  1  0
  9 11  2  0
  2 12  1  0
 12 13  1  0
 13 14  1  0
 14 15  1  0
 15 16  1  0
 16 17  1  0
 17 18  1  0
 18 19  2  0
 16 20  1  1
 20 21  1  0
 11  4  1  0
 18 11  1  0
 13 17  2  0
M  END
>  <docking_score>  (2) 
-6.7720000000000002

$$$$
