
     RDKit          3D

 27 30  0  0  0  0  0  0  0  0999 V2000
  130.2362  123.7707  140.8615 O   0  0  0  0  0  0  0  0  0  0  0  0
  130.2005  125.0339  140.8081 C   0  0  0  0  0  0  0  0  0  0  0  0
  129.2800  125.7947  141.5594 N   0  0  0  0  0  0  0  0  0  0  0  0
  128.3315  125.0918  142.4234 C   0  0  1  0  0  0  0  0  0  0  0  0
  128.4525  125.4748  143.9249 C   0  0  0  0  0  0  0  0  0  0  0  0
  127.2647  125.9029  143.0726 C   0  0  2  0  0  0  0  0  0  0  0  0
  125.9954  125.2243  143.4243 C   0  0  0  0  0  0  0  0  0  0  0  0
  124.8227  125.5599  142.7459 C   0  0  0  0  0  0  0  0  0  0  0  0
  123.6289  124.9712  143.0219 C   0  0  0  0  0  0  0  0  0  0  0  0
  123.5383  124.0119  143.9932 C   0  0  0  0  0  0  0  0  0  0  0  0
  124.6829  123.6596  144.6815 C   0  0  0  0  0  0  0  0  0  0  0  0
  125.8977  124.2577  144.4016 C   0  0  0  0  0  0  0  0  0  0  0  0
  131.1389  125.6664  139.9474 N   0  0  0  0  0  0  0  0  0  0  0  0
  132.1105  124.9974  139.1451 C   0  0  0  0  0  0  0  0  0  0  0  0
  133.4786  125.6508  139.2131 C   0  0  0  0  0  0  0  0  0  0  0  0
  133.9483  125.4858  140.6680 C   0  0  0  0  0  0  0  0  0  0  0  0
  134.9276  124.3904  140.7297 C   0  0  0  0  0  0  0  0  0  0  0  0
  134.8344  123.1805  140.1688 N   0  0  0  0  0  0  0  0  0  0  0  0
  135.9320  122.4711  140.4568 C   0  0  0  0  0  0  0  0  0  0  0  0
  136.3035  121.1141  140.0823 C   0  0  0  0  0  0  0  0  0  0  0  0
  137.5723  120.6137  140.2810 C   0  0  0  0  0  0  0  0  0  0  0  0
  137.8970  119.3270  139.9197 C   0  0  0  0  0  0  0  0  0  0  0  0
  136.9411  118.5099  139.3450 C   0  0  0  0  0  0  0  0  0  0  0  0
  135.6795  119.0255  139.1542 C   0  0  0  0  0  0  0  0  0  0  0  0
  135.3924  120.2882  139.5184 N   0  0  0  0  0  0  0  0  0  0  0  0
  136.6991  123.2857  141.2110 N   0  0  0  0  0  0  0  0  0  0  0  0
  136.0717  124.4231  141.3555 O   0  0  0  0  0  0  0  0  0  0  0  0
  1  2  2  0
  2  3  1  0
  4  3  1  6
  4  5  1  0
  5  6  1  0
  6  7  1  1
  7  8  2  0
  8  9  1  0
  9 10  2  0
 10 11  1  0
 11 12  2  0
  2 13  1  0
 13 14  1  0
 14 15  1  0
 15 16  1  0
 16 17  1  0
 17 18  2  0
 18 19  1  0
 19 20  1  0
 20 21  2  0
 21 22  1  0
 22 23  2  0
 23 24  1  0
 24 25  2  0
 19 26  2  0
 26 27  1  0
  6  4  1  0
 12  7  1  0
 27 17  1  0
 25 20  1  0
M  END
>  <docking_score>  (1) 
-7.8159999999999998

$$$$

     RDKit          3D

 27 30  0  0  0  0  0  0  0  0999 V2000
  129.7507  124.3920  140.8213 O   0  0  0  0  0  0  0  0  0  0  0  0
  130.0342  125.0608  141.8568 C   0  0  0  0  0  0  0  0  0  0  0  0
  129.0488  125.4898  142.7708 N   0  0  0  0  0  0  0  0  0  0  0  0
  127.6509  125.1522  142.5024 C   0  0  1  0  0  0  0  0  0  0  0  0
  127.0488  124.1364  143.5132 C   0  0  0  0  0  0  0  0  0  0  0  0
  126.6346  125.6022  143.4934 C   0  0  2  0  0  0  0  0  0  0  0  0
  125.2518  125.8309  143.0129 C   0  0  0  0  0  0  0  0  0  0  0  0
  125.0437  126.4161  141.7630 C   0  0  0  0  0  0  0  0  0  0  0  0
  123.7996  126.6493  141.2670 C   0  0  0  0  0  0  0  0  0  0  0  0
  122.6905  126.3104  141.9929 C   0  0  0  0  0  0  0  0  0  0  0  0
  122.8660  125.7296  143.2338 C   0  0  0  0  0  0  0  0  0  0  0  0
  124.1308  125.4920  143.7392 C   0  0  0  0  0  0  0  0  0  0  0  0
  131.4065  125.3681  142.0661 N   0  0  0  0  0  0  0  0  0  0  0  0
  132.4819  124.9864  141.2098 C   0  0  0  0  0  0  0  0  0  0  0  0
  133.8147  125.5657  141.6472 C   0  0  0  0  0  0  0  0  0  0  0  0
  134.7669  125.3683  140.4560 C   0  0  0  0  0  0  0  0  0  0  0  0
  135.4353  124.0655  140.5930 C   0  0  0  0  0  0  0  0  0  0  0  0
  135.6246  123.1423  139.6448 N   0  0  0  0  0  0  0  0  0  0  0  0
  136.2740  122.0952  140.1670 C   0  0  0  0  0  0  0  0  0  0  0  0
  136.7090  120.8509  139.5488 C   0  0  0  0  0  0  0  0  0  0  0  0
  135.9533  120.1919  138.6031 C   0  0  0  0  0  0  0  0  0  0  0  0
  136.3882  119.0183  138.0329 C   0  0  0  0  0  0  0  0  0  0  0  0
  137.6050  118.4789  138.4073 C   0  0  0  0  0  0  0  0  0  0  0  0
  138.3467  119.1502  139.3524 C   0  0  0  0  0  0  0  0  0  0  0  0
  137.8944  120.2964  139.8918 N   0  0  0  0  0  0  0  0  0  0  0  0
  136.4760  122.4077  141.4641 N   0  0  0  0  0  0  0  0  0  0  0  0
  135.9639  123.5895  141.6864 O   0  0  0  0  0  0  0  0  0  0  0  0
  1  2  2  0
  2  3  1  0
  4  3  1  1
  4  5  1  0
  5  6  1  0
  6  7  1  6
  7  8  2  0
  8  9  1  0
  9 10  2  0
 10 11  1  0
 11 12  2  0
  2 13  1  0
 13 14  1  0
 14 15  1  0
 15 16  1  0
 16 17  1  0
 17 18  2  0
 18 19  1  0
 19 20  1  0
 20 21  2  0
 21 22  1  0
 22 23  2  0
 23 24  1  0
 24 25  2  0
 19 26  2  0
 26 27  1  0
  6  4  1  0
 12  7  1  0
 27 17  1  0
 25 20  1  0
M  END
>  <docking_score>  (2) 
-7.3979999999999997

$$$$

     RDKit          3D

 27 30  0  0  0  0  0  0  0  0999 V2000
  139.3621  113.1975  137.4913 O   0  0  0  0  0  0  0  0  0  0  0  0
  139.8318  112.4257  136.6061 C   0  0  0  0  0  0  0  0  0  0  0  0
  140.5605  111.2618  136.9300 N   0  0  0  0  0  0  0  0  0  0  0  0
  140.7834  110.9455  138.3408 C   0  0  1  0  0  0  0  0  0  0  0  0
  141.7625  109.7599  138.5677 C   0  0  0  0  0  0  0  0  0  0  0  0
  142.1427  111.1985  138.8935 C   0  0  2  0  0  0  0  0  0  0  0  0
  142.2603  111.4766  140.3441 C   0  0  0  0  0  0  0  0  0  0  0  0
  142.4566  110.4206  141.2353 C   0  0  0  0  0  0  0  0  0  0  0  0
  142.5740  110.6124  142.5760 C   0  0  0  0  0  0  0  0  0  0  0  0
  142.5020  111.8727  143.1037 C   0  0  0  0  0  0  0  0  0  0  0  0
  142.3081  112.9374  142.2454 C   0  0  0  0  0  0  0  0  0  0  0  0
  142.1885  112.7434  140.8817 C   0  0  0  0  0  0  0  0  0  0  0  0
  139.5929  112.7833  135.2510 N   0  0  0  0  0  0  0  0  0  0  0  0
  138.8718  113.9332  134.8114 C   0  0  0  0  0  0  0  0  0  0  0  0
  137.4227  113.6265  134.4809 C   0  0  0  0  0  0  0  0  0  0  0  0
  136.9386  114.7929  133.6034 C   0  0  0  0  0  0  0  0  0  0  0  0
  136.9948  116.0343  134.3900 C   0  0  0  0  0  0  0  0  0  0  0  0
  136.5133  116.2432  135.6195 N   0  0  0  0  0  0  0  0  0  0  0  0
  136.7641  117.5054  135.9867 C   0  0  0  0  0  0  0  0  0  0  0  0
  136.4444  118.2105  137.2197 C   0  0  0  0  0  0  0  0  0  0  0  0
  137.2238  119.2375  137.7071 C   0  0  0  0  0  0  0  0  0  0  0  0
  136.8985  119.8888  138.8740 C   0  0  0  0  0  0  0  0  0  0  0  0
  135.7705  119.5151  139.5811 C   0  0  0  0  0  0  0  0  0  0  0  0
  135.0037  118.4882  139.0799 C   0  0  0  0  0  0  0  0  0  0  0  0
  135.3479  117.8706  137.9355 N   0  0  0  0  0  0  0  0  0  0  0  0
  137.4145  118.0611  134.9431 N   0  0  0  0  0  0  0  0  0  0  0  0
  137.5363  117.1575  134.0067 O   0  0  0  0  0  0  0  0  0  0  0  0
  1  2  2  0
  2  3  1  0
  4  3  1  6
  4  5  1  0
  5  6  1  0
  6  7  1  1
  7  8  2  0
  8  9  1  0
  9 10  2  0
 10 11  1  0
 11 12  2  0
  2 13  1  0
 13 14  1  0
 14 15  1  0
 15 16  1  0
 16 17  1  0
 17 18  2  0
 18 19  1  0
 19 20  1  0
 20 21  2  0
 21 22  1  0
 22 23  2  0
 23 24  1  0
 24 25  2  0
 19 26  2  0
 26 27  1  0
  6  4  1  0
 12  7  1  0
 27 17  1  0
 25 20  1  0
M  END
>  <docking_score>  (3) 
-7.2089999999999996

$$$$
