
     RDKit          3D

 20 22  0  0  0  0  0  0  0  0999 V2000
  135.8889  118.2048  132.1747 O   0  0  0  0  0  0  0  0  0  0  0  0
  136.6769  117.6437  132.9801 C   0  0  0  0  0  0  0  0  0  0  0  0
  136.4738  118.1950  134.2799 N   0  0  0  0  0  0  0  0  0  0  0  0
  136.9351  117.8368  135.5901 C   0  0  0  0  0  0  0  0  0  0  0  0
  136.1754  118.5832  136.4748 C   0  0  0  0  0  0  0  0  0  0  0  0
  136.3737  118.4704  137.8388 C   0  0  0  0  0  0  0  0  0  0  0  0
  135.4400  119.3912  138.9953 Cl  0  0  0  0  0  0  0  0  0  0  0  0
  137.3503  117.5912  138.2591 C   0  0  0  0  0  0  0  0  0  0  0  0
  138.1104  116.8446  137.3760 C   0  0  0  0  0  0  0  0  0  0  0  0
  139.0630  115.9867  137.7863 F   0  0  0  0  0  0  0  0  0  0  0  0
  137.9044  116.9643  136.0132 C   0  0  0  0  0  0  0  0  0  0  0  0
  137.5299  116.6595  132.4544 N   0  0  0  0  0  0  0  0  0  0  0  0
  138.2382  115.5471  133.0465 C   0  0  1  0  0  0  0  0  0  0  0  0
  138.8694  114.6962  131.9691 C   0  0  0  0  0  0  0  0  0  0  0  0
  140.0237  114.0175  132.6750 C   0  0  1  0  0  0  0  0  0  0  0  0
  140.3557  114.8227  133.8829 C   0  0  0  0  0  0  0  0  0  0  0  0
  139.3383  115.9532  133.9672 C   0  0  2  0  0  0  0  0  0  0  0  0
  138.8434  116.0642  135.3504 C   0  0  0  0  0  0  0  0  0  0  0  0
  139.3018  115.2210  136.1737 O   0  0  0  0  0  0  0  0  0  0  0  0
  139.5222  112.0123  133.0835 I   0  0  0  0  0  0  0  0  0  0  0  0
  1  2  2  0
  2  3  1  0
  3  4  1  0
  4  5  2  0
  5  6  1  0
  6  7  1  0
  6  8  2  0
  8  9  1  0
  9 10  1  0
  9 11  2  0
  2 12  1  0
 12 13  1  0
 13 14  1  6
 14 15  1  0
 15 16  1  0
 17 16  1  1
 17 18  1  0
 18 19  2  0
 15 20  1  1
 11  4  1  0
 18 11  1  0
 17 13  1  0
M  END
>  <docking_score>  (1) 
-7.8330000000000002

$$$$

     RDKit          3D

 20 22  0  0  0  0  0  0  0  0999 V2000
  136.5055  126.4037  141.7063 O   0  0  0  0  0  0  0  0  0  0  0  0
  135.6854  125.5467  141.2849 C   0  0  0  0  0  0  0  0  0  0  0  0
  136.3849  124.3308  141.0261 N   0  0  0  0  0  0  0  0  0  0  0  0
  135.9657  122.9944  140.7160 C   0  0  0  0  0  0  0  0  0  0  0  0
  137.0943  122.2040  140.8510 C   0  0  0  0  0  0  0  0  0  0  0  0
  137.0295  120.8422  140.6188 C   0  0  0  0  0  0  0  0  0  0  0  0
  138.4265  119.8026  140.7762 Cl  0  0  0  0  0  0  0  0  0  0  0  0
  135.8031  120.3270  140.2527 C   0  0  0  0  0  0  0  0  0  0  0  0
  134.6743  121.1159  140.1172 C   0  0  0  0  0  0  0  0  0  0  0  0
  133.4778  120.6130  139.7602 F   0  0  0  0  0  0  0  0  0  0  0  0
  134.7492  122.4772  140.3519 C   0  0  0  0  0  0  0  0  0  0  0  0
  134.3454  125.9511  141.1691 N   0  0  0  0  0  0  0  0  0  0  0  0
  133.0942  125.2277  141.1376 C   0  0  1  0  0  0  0  0  0  0  0  0
  131.9317  126.1918  141.1850 C   0  0  0  0  0  0  0  0  0  0  0  0
  130.8002  125.4254  140.5340 C   0  0  1  0  0  0  0  0  0  0  0  0
  131.4008  124.3473  139.7003 C   0  0  0  0  0  0  0  0  0  0  0  0
  132.9082  124.3965  139.9140 C   0  0  2  0  0  0  0  0  0  0  0  0
  133.4165  123.0310  140.1317 C   0  0  0  0  0  0  0  0  0  0  0  0
  132.5500  122.1100  140.1372 O   0  0  0  0  0  0  0  0  0  0  0  0
  129.4704  124.7339  142.0148 I   0  0  0  0  0  0  0  0  0  0  0  0
  1  2  2  0
  2  3  1  0
  3  4  1  0
  4  5  2  0
  5  6  1  0
  6  7  1  0
  6  8  2  0
  8  9  1  0
  9 10  1  0
  9 11  2  0
  2 12  1  0
 12 13  1  0
 13 14  1  6
 14 15  1  0
 15 16  1  0
 17 16  1  1
 17 18  1  0
 18 19  2  0
 15 20  1  1
 11  4  1  0
 18 11  1  0
 17 13  1  0
M  END
>  <docking_score>  (2) 
-7.3840000000000003

$$$$

     RDKit          3D

 20 22  0  0  0  0  0  0  0  0999 V2000
  142.4156  133.6840  142.7478 O   0  0  0  0  0  0  0  0  0  0  0  0
  142.4345  134.2208  141.6093 C   0  0  0  0  0  0  0  0  0  0  0  0
  143.3168  135.3409  141.6450 N   0  0  0  0  0  0  0  0  0  0  0  0
  143.8667  136.2003  140.6366 C   0  0  0  0  0  0  0  0  0  0  0  0
  144.8688  136.9227  141.2617 C   0  0  0  0  0  0  0  0  0  0  0  0
  145.6072  137.8547  140.5557 C   0  0  0  0  0  0  0  0  0  0  0  0
  146.8823  138.7911  141.3005 Cl  0  0  0  0  0  0  0  0  0  0  0  0
  145.2956  138.0206  139.2220 C   0  0  0  0  0  0  0  0  0  0  0  0
  144.2943  137.2994  138.5959 C   0  0  0  0  0  0  0  0  0  0  0  0
  143.9904  137.4613  137.2946 F   0  0  0  0  0  0  0  0  0  0  0  0
  143.5611  136.3691  139.3107 C   0  0  0  0  0  0  0  0  0  0  0  0
  141.6324  133.6351  140.6162 N   0  0  0  0  0  0  0  0  0  0  0  0
  141.6727  133.6606  139.1713 C   0  0  1  0  0  0  0  0  0  0  0  0
  140.6629  132.6907  138.6031 C   0  0  0  0  0  0  0  0  0  0  0  0
  140.3641  133.2456  137.2269 C   0  0  1  0  0  0  0  0  0  0  0  0
  140.7413  134.6863  137.2249 C   0  0  0  0  0  0  0  0  0  0  0  0
  141.3604  134.9941  138.5822 C   0  0  2  0  0  0  0  0  0  0  0  0
  142.5924  135.7789  138.3916 C   0  0  0  0  0  0  0  0  0  0  0  0
  142.9201  136.0163  137.1936 O   0  0  0  0  0  0  0  0  0  0  0  0
  141.3537  132.0908  135.7686 I   0  0  0  0  0  0  0  0  0  0  0  0
  1  2  2  0
  2  3  1  0
  3  4  1  0
  4  5  2  0
  5  6  1  0
  6  7  1  0
  6  8  2  0
  8  9  1  0
  9 10  1  0
  9 11  2  0
  2 12  1  0
 12 13  1  0
 13 14  1  6
 14 15  1  0
 15 16  1  0
 17 16  1  6
 17 18  1  0
 18 19  2  0
 15 20  1  6
 11  4  1  0
 18 11  1  0
 17 13  1  0
M  END
>  <docking_score>  (3) 
-7.3310000000000004

$$$$
