
     RDKit          3D

 24 26  0  0  0  0  0  0  0  0999 V2000
  146.6314  136.1424  138.9091 O   0  0  0  0  0  0  0  0  0  0  0  0
  146.0583  137.2133  139.1734 C   0  0  0  0  0  0  0  0  0  0  0  0
  146.1108  138.0934  140.2752 N   0  0  0  0  0  0  0  0  0  0  0  0
  147.1465  138.4435  141.1740 C   0  0  0  0  0  0  0  0  0  0  0  0
  147.4720  137.5916  142.1995 C   0  0  0  0  0  0  0  0  0  0  0  0
  148.4700  137.8910  143.0966 C   0  0  0  0  0  0  0  0  0  0  0  0
  149.1866  139.0601  143.0041 C   0  0  0  0  0  0  0  0  0  0  0  0
  150.1738  139.3642  143.8878 F   0  0  0  0  0  0  0  0  0  0  0  0
  148.8421  139.9060  141.9616 C   0  0  0  0  0  0  0  0  0  0  0  0
  149.7620  141.4048  141.8460 Cl  0  0  0  0  0  0  0  0  0  0  0  0
  147.8494  139.6225  141.0580 C   0  0  0  0  0  0  0  0  0  0  0  0
  144.7166  138.4104  140.0277 C   0  0  2  0  0  0  0  0  0  0  0  0
  143.8168  137.3894  140.6182 C   0  0  0  0  0  0  0  0  0  0  0  0
  142.4735  137.6759  140.7063 C   0  0  0  0  0  0  0  0  0  0  0  0
  141.5683  136.7698  141.2431 C   0  0  0  0  0  0  0  0  0  0  0  0
  142.0915  135.5622  141.6842 C   0  0  0  0  0  0  0  0  0  0  0  0
  143.4216  135.2834  141.5952 C   0  0  0  0  0  0  0  0  0  0  0  0
  144.2516  136.2043  141.0641 N   0  0  0  0  0  0  0  0  0  0  0  0
  145.0784  138.1250  138.5701 C   0  0  2  0  0  0  0  0  0  0  0  0
  143.9869  137.4576  137.7752 C   0  0  0  0  0  0  0  0  0  0  0  0
  144.3482  137.1349  136.3745 C   0  0  0  0  0  0  0  0  0  0  0  0
  144.4170  135.7278  136.0852 N   0  0  0  0  0  0  0  0  0  0  0  0
  143.9762  135.4030  134.4293 Cl  0  0  0  0  0  0  0  0  0  0  0  0
  143.7207  134.9679  136.9445 F   0  0  0  0  0  0  0  0  0  0  0  0
  1  2  2  0
  2  3  1  0
  3  4  1  0
  4  5  2  0
  5  6  1  0
  6  7  2  0
  7  8  1  0
  7  9  1  0
  9 10  1  0
  9 11  2  0
  3 12  1  0
 12 13  1  1
 13 14  2  0
 14 15  1  0
 15 16  2  0
 16 17  1  0
 17 18  2  0
 12 19  1  0
 19 20  1  6
 20 21  1  0
 21 22  1  0
 22 23  1  0
 22 24  1  0
 19  2  1  0
 11  4  1  0
 18 13  1  0
M  END
>  <docking_score>  (1) 
-7.149

$$$$

     RDKit          3D

 24 26  0  0  0  0  0  0  0  0999 V2000
  136.9434  118.8489  133.8342 O   0  0  0  0  0  0  0  0  0  0  0  0
  136.4879  117.7709  134.2533 C   0  0  0  0  0  0  0  0  0  0  0  0
  136.4972  117.1414  135.5161 N   0  0  0  0  0  0  0  0  0  0  0  0
  136.4798  117.6453  136.8386 C   0  0  0  0  0  0  0  0  0  0  0  0
  135.2870  117.7499  137.5094 C   0  0  0  0  0  0  0  0  0  0  0  0
  135.2224  118.2345  138.7944 C   0  0  0  0  0  0  0  0  0  0  0  0
  136.3533  118.6359  139.4643 C   0  0  0  0  0  0  0  0  0  0  0  0
  136.2977  119.1175  140.7343 F   0  0  0  0  0  0  0  0  0  0  0  0
  137.5469  118.5219  138.7691 C   0  0  0  0  0  0  0  0  0  0  0  0
  138.9953  119.0382  139.6302 Cl  0  0  0  0  0  0  0  0  0  0  0  0
  137.6291  118.0406  137.4870 C   0  0  0  0  0  0  0  0  0  0  0  0
  136.5279  115.8649  134.8267 C   0  0  2  0  0  0  0  0  0  0  0  0
  137.9057  115.5105  134.4062 C   0  0  0  0  0  0  0  0  0  0  0  0
  138.2445  114.1783  134.3370 C   0  0  0  0  0  0  0  0  0  0  0  0
  139.5129  113.7678  133.9481 C   0  0  0  0  0  0  0  0  0  0  0  0
  140.4176  114.7724  133.6335 C   0  0  0  0  0  0  0  0  0  0  0  0
  140.0776  116.0893  133.7039 C   0  0  0  0  0  0  0  0  0  0  0  0
  138.8296  116.4258  134.0886 N   0  0  0  0  0  0  0  0  0  0  0  0
  135.7415  116.6115  133.7491 C   0  0  2  0  0  0  0  0  0  0  0  0
  136.0719  116.2009  132.3381 C   0  0  0  0  0  0  0  0  0  0  0  0
  135.4298  114.9420  131.8918 C   0  0  0  0  0  0  0  0  0  0  0  0
  136.0641  114.3163  130.7629 N   0  0  0  0  0  0  0  0  0  0  0  0
  137.7770  114.6439  130.7414 Cl  0  0  0  0  0  0  0  0  0  0  0  0
  135.4852  114.6124  129.5891 F   0  0  0  0  0  0  0  0  0  0  0  0
  1  2  2  0
  2  3  1  0
  3  4  1  0
  4  5  2  0
  5  6  1  0
  6  7  2  0
  7  8  1  0
  7  9  1  0
  9 10  1  0
  9 11  2  0
  3 12  1  0
 12 13  1  6
 13 14  2  0
 14 15  1  0
 15 16  2  0
 16 17  1  0
 17 18  2  0
 12 19  1  0
 19 20  1  6
 20 21  1  0
 21 22  1  0
 22 23  1  0
 22 24  1  0
 19  2  1  0
 11  4  1  0
 18 13  1  0
M  END
>  <docking_score>  (2) 
-7.0499999999999998

$$$$

     RDKit          3D

 24 26  0  0  0  0  0  0  0  0999 V2000
  122.5612  125.8564  145.0883 O   0  0  0  0  0  0  0  0  0  0  0  0
  122.8139  125.0185  144.2056 C   0  0  0  0  0  0  0  0  0  0  0  0
  123.8531  124.8920  143.2595 N   0  0  0  0  0  0  0  0  0  0  0  0
  125.2204  125.2570  143.2827 C   0  0  0  0  0  0  0  0  0  0  0  0
  126.0547  124.7036  144.2213 C   0  0  0  0  0  0  0  0  0  0  0  0
  127.3891  125.0294  144.2818 C   0  0  0  0  0  0  0  0  0  0  0  0
  127.9461  125.9261  143.4018 C   0  0  0  0  0  0  0  0  0  0  0  0
  129.2641  126.2546  143.4558 F   0  0  0  0  0  0  0  0  0  0  0  0
  127.0864  126.4731  142.4622 C   0  0  0  0  0  0  0  0  0  0  0  0
  127.8032  127.6233  141.3356 Cl  0  0  0  0  0  0  0  0  0  0  0  0
  125.7530  126.1589  142.3880 C   0  0  0  0  0  0  0  0  0  0  0  0
  122.8977  124.2664  142.3643 C   0  0  2  0  0  0  0  0  0  0  0  0
  122.0845  125.2793  141.6477 C   0  0  0  0  0  0  0  0  0  0  0  0
  121.1331  124.8400  140.7555 C   0  0  0  0  0  0  0  0  0  0  0  0
  120.3306  125.7269  140.0498 C   0  0  0  0  0  0  0  0  0  0  0  0
  120.5401  127.0772  140.2936 C   0  0  0  0  0  0  0  0  0  0  0  0
  121.4831  127.5070  141.1772 C   0  0  0  0  0  0  0  0  0  0  0  0
  122.2322  126.5970  141.8326 N   0  0  0  0  0  0  0  0  0  0  0  0
  122.2489  123.7783  143.6596 C   0  0  2  0  0  0  0  0  0  0  0  0
  120.7442  123.7222  143.6213 C   0  0  0  0  0  0  0  0  0  0  0  0
  120.1640  122.3998  143.9547 C   0  0  0  0  0  0  0  0  0  0  0  0
  118.7477  122.2953  143.7280 N   0  0  0  0  0  0  0  0  0  0  0  0
  118.2920  123.0589  142.2277 Cl  0  0  0  0  0  0  0  0  0  0  0  0
  118.0052  122.7340  144.7561 F   0  0  0  0  0  0  0  0  0  0  0  0
  1  2  2  0
  2  3  1  0
  3  4  1  0
  4  5  2  0
  5  6  1  0
  6  7  2  0
  7  8  1  0
  7  9  1  0
  9 10  1  0
  9 11  2  0
  3 12  1  0
 12 13  1  1
 13 14  2  0
 14 15  1  0
 15 16  2  0
 16 17  1  0
 17 18  2  0
 12 19  1  0
 19 20  1  6
 20 21  1  0
 21 22  1  0
 22 23  1  0
 22 24  1  0
 19  2  1  0
 11  4  1  0
 18 13  1  0
M  END
>  <docking_score>  (3) 
-7.0179999999999998

$$$$
