
     RDKit          3D

 20 22  0  0  0  0  0  0  0  0999 V2000
  122.1932  128.2282  140.2477 O   0  0  0  0  0  0  0  0  0  0  0  0
  121.7266  127.0934  140.4566 C   0  0  0  0  0  0  0  0  0  0  0  0
  122.4500  126.3249  141.4194 N   0  0  0  0  0  0  0  0  0  0  0  0
  122.3615  124.9852  141.9082 C   0  0  0  0  0  0  0  0  0  0  0  0
  123.1913  124.9292  143.0094 C   0  0  0  0  0  0  0  0  0  0  0  0
  123.3277  123.7433  143.7210 C   0  0  0  0  0  0  0  0  0  0  0  0
  124.3718  123.6470  145.1183 Cl  0  0  0  0  0  0  0  0  0  0  0  0
  122.6058  122.6592  143.2738 C   0  0  0  0  0  0  0  0  0  0  0  0
  121.7782  122.7226  142.1719 C   0  0  0  0  0  0  0  0  0  0  0  0
  121.0655  121.6369  141.7373 F   0  0  0  0  0  0  0  0  0  0  0  0
  121.6473  123.9003  141.4711 C   0  0  0  0  0  0  0  0  0  0  0  0
  120.5569  126.7573  139.7032 N   0  0  0  0  0  0  0  0  0  0  0  0
  119.6357  125.7262  139.4850 C   0  0  2  0  0  0  0  0  0  0  0  0
  118.3633  125.7521  140.2246 C   0  0  0  0  0  0  0  0  0  0  0  0
  117.3872  125.1357  139.2381 C   0  0  0  0  0  0  0  0  0  0  0  0
  118.4733  123.5328  138.9923 S   0  0  1  0  0  0  0  0  0  0  0  0
  120.1046  124.3663  139.2661 C   0  0  2  0  0  0  0  0  0  0  0  0
  120.7168  123.6497  140.3769 C   0  0  0  0  0  0  0  0  0  0  0  0
  120.3412  122.4480  140.4230 O   0  0  0  0  0  0  0  0  0  0  0  0
  117.9193  122.1524  139.4003 Cl  0  0  0  0  0  0  0  0  0  0  0  0
  1  2  2  0
  2  3  1  0
  3  4  1  0
  4  5  2  0
  5  6  1  0
  6  7  1  0
  6  8  2  0
  8  9  1  0
  9 10  1  0
  9 11  2  0
  2 12  1  0
 12 13  1  0
 13 14  1  1
 14 15  1  0
 15 16  1  0
 16 17  1  0
 17 18  1  1
 18 19  2  0
 16 20  1  1
 11  4  1  0
 18 11  1  0
 17 13  1  0
M  END
>  <docking_score>  (1) 
-7.351

$$$$

     RDKit          3D

 20 22  0  0  0  0  0  0  0  0999 V2000
  139.6844  113.8162  138.3821 O   0  0  0  0  0  0  0  0  0  0  0  0
  139.2063  114.4721  137.4387 C   0  0  0  0  0  0  0  0  0  0  0  0
  138.5224  115.6627  137.8334 N   0  0  0  0  0  0  0  0  0  0  0  0
  137.7577  116.6568  137.1488 C   0  0  0  0  0  0  0  0  0  0  0  0
  137.5740  117.6820  138.0540 C   0  0  0  0  0  0  0  0  0  0  0  0
  136.8582  118.8158  137.6887 C   0  0  0  0  0  0  0  0  0  0  0  0
  136.6121  120.1270  138.8165 Cl  0  0  0  0  0  0  0  0  0  0  0  0
  136.3580  118.8532  136.4063 C   0  0  0  0  0  0  0  0  0  0  0  0
  136.5456  117.8243  135.5067 C   0  0  0  0  0  0  0  0  0  0  0  0
  136.0427  117.8738  134.2337 F   0  0  0  0  0  0  0  0  0  0  0  0
  137.2556  116.7036  135.8745 C   0  0  0  0  0  0  0  0  0  0  0  0
  139.4219  113.9257  136.1335 N   0  0  0  0  0  0  0  0  0  0  0  0
  139.1547  114.1510  134.7780 C   0  0  2  0  0  0  0  0  0  0  0  0
  140.1805  114.8195  133.9609 C   0  0  0  0  0  0  0  0  0  0  0  0
  139.9995  114.1742  132.5983 C   0  0  0  0  0  0  0  0  0  0  0  0
  138.0966  114.6018  132.5236 S   0  0  1  0  0  0  0  0  0  0  0  0
  137.8097  114.5058  134.3510 C   0  0  2  0  0  0  0  0  0  0  0  0
  137.2787  115.8105  134.7223 C   0  0  0  0  0  0  0  0  0  0  0  0
  136.6441  116.3450  133.7743 O   0  0  0  0  0  0  0  0  0  0  0  0
  137.5567  115.5401  131.4251 Cl  0  0  0  0  0  0  0  0  0  0  0  0
  1  2  2  0
  2  3  1  0
  3  4  1  0
  4  5  2  0
  5  6  1  0
  6  7  1  0
  6  8  2  0
  8  9  1  0
  9 10  1  0
  9 11  2  0
  2 12  1  0
 12 13  1  0
 13 14  1  1
 14 15  1  0
 15 16  1  0
 16 17  1  0
 17 18  1  1
 18 19  2  0
 16 20  1  1
 11  4  1  0
 18 11  1  0
 17 13  1  0
M  END
>  <docking_score>  (2) 
-7.1749999999999998

$$$$

     RDKit          3D

 20 22  0  0  0  0  0  0  0  0999 V2000
  122.1714  128.2443  140.1275 O   0  0  0  0  0  0  0  0  0  0  0  0
  122.2451  127.1374  140.6918 C   0  0  0  0  0  0  0  0  0  0  0  0
  121.3469  126.1517  140.1795 N   0  0  0  0  0  0  0  0  0  0  0  0
  121.0072  124.8133  140.5466 C   0  0  0  0  0  0  0  0  0  0  0  0
  120.2492  124.3168  139.5059 C   0  0  0  0  0  0  0  0  0  0  0  0
  119.7570  123.0182  139.5584 C   0  0  0  0  0  0  0  0  0  0  0  0
  118.7951  122.3668  138.2537 Cl  0  0  0  0  0  0  0  0  0  0  0  0
  120.0626  122.2786  140.6790 C   0  0  0  0  0  0  0  0  0  0  0  0
  120.8211  122.7817  141.7158 C   0  0  0  0  0  0  0  0  0  0  0  0
  121.1179  122.0355  142.8252 F   0  0  0  0  0  0  0  0  0  0  0  0
  121.3058  124.0689  141.6579 C   0  0  0  0  0  0  0  0  0  0  0  0
  123.2080  127.0439  141.7467 N   0  0  0  0  0  0  0  0  0  0  0  0
  123.7280  126.1600  142.6996 C   0  0  2  0  0  0  0  0  0  0  0  0
  124.9655  125.4300  142.3797 C   0  0  0  0  0  0  0  0  0  0  0  0
  125.6442  125.3078  143.7327 C   0  0  0  0  0  0  0  0  0  0  0  0
  124.0812  124.4908  144.5687 S   0  0  1  0  0  0  0  0  0  0  0  0
  122.8283  125.3630  143.5196 C   0  0  2  0  0  0  0  0  0  0  0  0
  122.0579  124.3019  142.8850 C   0  0  0  0  0  0  0  0  0  0  0  0
  122.0173  123.2628  143.5963 O   0  0  0  0  0  0  0  0  0  0  0  0
  124.1641  123.0560  145.1286 Cl  0  0  0  0  0  0  0  0  0  0  0  0
  1  2  2  0
  2  3  1  0
  3  4  1  0
  4  5  2  0
  5  6  1  0
  6  7  1  0
  6  8  2  0
  8  9  1  0
  9 10  1  0
  9 11  2  0
  2 12  1  0
 12 13  1  0
 13 14  1  6
 14 15  1  0
 15 16  1  0
 16 17  1  0
 17 18  1  6
 18 19  2  0
 16 20  1  6
 11  4  1  0
 18 11  1  0
 17 13  1  0
M  END
>  <docking_score>  (3) 
-7.0819999999999999

$$$$
