
     RDKit          3D

 24 26  0  0  0  0  0  0  0  0999 V2000
  142.8033  135.3055  136.5910 O   0  0  0  0  0  0  0  0  0  0  0  0
  142.7946  134.0481  136.6137 C   0  0  0  0  0  0  0  0  0  0  0  0
  143.5097  133.0440  135.9138 N   0  0  0  0  0  0  0  0  0  0  0  0
  144.8290  132.9750  135.4182 C   0  0  0  0  0  0  0  0  0  0  0  0
  145.8889  133.6408  135.9997 C   0  0  0  0  0  0  0  0  0  0  0  0
  147.1835  133.5826  135.5275 C   0  0  0  0  0  0  0  0  0  0  0  0
  147.4158  132.8012  134.3956 C   0  0  0  0  0  0  0  0  0  0  0  0
  148.6706  132.7284  133.9168 F   0  0  0  0  0  0  0  0  0  0  0  0
  146.3924  132.1194  133.7804 C   0  0  0  0  0  0  0  0  0  0  0  0
  146.7431  131.1590  132.3710 Cl  0  0  0  0  0  0  0  0  0  0  0  0
  145.1322  132.2173  134.2973 C   0  0  0  0  0  0  0  0  0  0  0  0
  142.3161  132.2393  135.9760 C   0  0  2  0  0  0  0  0  0  0  0  0
  141.3716  132.6997  134.9112 C   0  0  0  0  0  0  0  0  0  0  0  0
  140.2038  131.9991  134.6384 C   0  0  0  0  0  0  0  0  0  0  0  0
  139.2982  132.3479  133.6889 C   0  0  0  0  0  0  0  0  0  0  0  0
  139.5501  133.4853  132.9320 C   0  0  0  0  0  0  0  0  0  0  0  0
  140.7072  134.1736  133.2071 C   0  0  0  0  0  0  0  0  0  0  0  0
  141.5891  133.8015  134.1584 N   0  0  0  0  0  0  0  0  0  0  0  0
  142.0936  132.9400  137.3237 C   0  0  2  0  0  0  0  0  0  0  0  0
  140.6702  133.2549  137.6443 C   0  0  0  0  0  0  0  0  0  0  0  0
  140.4296  132.8546  139.0885 C   0  0  0  0  0  0  0  0  0  0  0  0
  141.6207  132.9724  139.9033 N   0  0  0  0  0  0  0  0  0  0  0  0
  141.7045  131.4727  140.8216 Cl  0  0  0  0  0  0  0  0  0  0  0  0
  141.3820  133.9445  140.8403 F   0  0  0  0  0  0  0  0  0  0  0  0
  1  2  2  0
  2  3  1  0
  3  4  1  0
  4  5  2  0
  5  6  1  0
  6  7  2  0
  7  8  1  0
  7  9  1  0
  9 10  1  0
  9 11  2  0
  3 12  1  0
 12 13  1  6
 13 14  2  0
 14 15  1  0
 15 16  2  0
 16 17  1  0
 17 18  2  0
 12 19  1  0
 19 20  1  6
 20 21  1  0
 21 22  1  0
 22 23  1  0
 22 24  1  0
 19  2  1  0
 11  4  1  0
 18 13  1  0
M  END
>  <docking_score>  (1) 
-6.875

$$$$

     RDKit          3D

 24 26  0  0  0  0  0  0  0  0999 V2000
  122.2922  125.6330  145.0370 O   0  0  0  0  0  0  0  0  0  0  0  0
  122.6160  124.8008  144.1514 C   0  0  0  0  0  0  0  0  0  0  0  0
  123.6793  124.7178  143.2175 N   0  0  0  0  0  0  0  0  0  0  0  0
  125.0323  125.1152  143.2668 C   0  0  0  0  0  0  0  0  0  0  0  0
  125.9420  124.5852  144.1592 C   0  0  0  0  0  0  0  0  0  0  0  0
  127.2673  124.9626  144.2189 C   0  0  0  0  0  0  0  0  0  0  0  0
  127.6946  125.9380  143.3180 C   0  0  0  0  0  0  0  0  0  0  0  0
  128.9830  126.3221  143.3566 F   0  0  0  0  0  0  0  0  0  0  0  0
  126.8258  126.4965  142.4102 C   0  0  0  0  0  0  0  0  0  0  0  0
  127.4169  127.7094  141.3095 Cl  0  0  0  0  0  0  0  0  0  0  0  0
  125.5256  126.0793  142.4010 C   0  0  0  0  0  0  0  0  0  0  0  0
  122.7509  124.0904  142.3118 C   0  0  2  0  0  0  0  0  0  0  0  0
  121.9080  125.1515  141.6781 C   0  0  0  0  0  0  0  0  0  0  0  0
  120.8605  124.8211  140.8281 C   0  0  0  0  0  0  0  0  0  0  0  0
  120.0525  125.7218  140.2122 C   0  0  0  0  0  0  0  0  0  0  0  0
  120.2832  127.0720  140.4435 C   0  0  0  0  0  0  0  0  0  0  0  0
  121.3211  127.3919  141.2855 C   0  0  0  0  0  0  0  0  0  0  0  0
  122.1078  126.4729  141.8835 N   0  0  0  0  0  0  0  0  0  0  0  0
  122.1289  123.5087  143.5890 C   0  0  2  0  0  0  0  0  0  0  0  0
  120.6403  123.3986  143.5730 C   0  0  0  0  0  0  0  0  0  0  0  0
  120.2859  121.9673  143.9330 C   0  0  0  0  0  0  0  0  0  0  0  0
  119.3417  121.8874  145.0278 N   0  0  0  0  0  0  0  0  0  0  0  0
  118.6895  120.2536  144.9593 Cl  0  0  0  0  0  0  0  0  0  0  0  0
  118.2831  122.7010  144.7162 F   0  0  0  0  0  0  0  0  0  0  0  0
  1  2  2  0
  2  3  1  0
  3  4  1  0
  4  5  2  0
  5  6  1  0
  6  7  2  0
  7  8  1  0
  7  9  1  0
  9 10  1  0
  9 11  2  0
  3 12  1  0
 12 13  1  1
 13 14  2  0
 14 15  1  0
 15 16  2  0
 16 17  1  0
 17 18  2  0
 12 19  1  0
 19 20  1  6
 20 21  1  0
 21 22  1  0
 22 23  1  0
 22 24  1  0
 19  2  1  0
 11  4  1  0
 18 13  1  0
M  END
>  <docking_score>  (2) 
-6.8639999999999999

$$$$

     RDKit          3D

 24 26  0  0  0  0  0  0  0  0999 V2000
  132.4422  123.4544  139.4652 O   0  0  0  0  0  0  0  0  0  0  0  0
  133.5388  123.9062  139.0470 C   0  0  0  0  0  0  0  0  0  0  0  0
  134.8971  123.6321  139.3463 N   0  0  0  0  0  0  0  0  0  0  0  0
  135.5799  122.4518  139.7090 C   0  0  0  0  0  0  0  0  0  0  0  0
  136.7362  122.4506  140.4625 C   0  0  0  0  0  0  0  0  0  0  0  0
  137.4143  121.3057  140.8254 C   0  0  0  0  0  0  0  0  0  0  0  0
  136.8864  120.0879  140.3966 C   0  0  0  0  0  0  0  0  0  0  0  0
  137.5297  118.9574  140.7386 F   0  0  0  0  0  0  0  0  0  0  0  0
  135.7371  120.0373  139.6434 C   0  0  0  0  0  0  0  0  0  0  0  0
  135.1248  118.4878  139.1376 Cl  0  0  0  0  0  0  0  0  0  0  0  0
  135.1118  121.2068  139.3174 C   0  0  0  0  0  0  0  0  0  0  0  0
  135.1652  125.0279  139.1100 C   0  0  2  0  0  0  0  0  0  0  0  0
  134.7655  125.8052  140.3241 C   0  0  0  0  0  0  0  0  0  0  0  0
  134.9719  127.1767  140.3960 C   0  0  0  0  0  0  0  0  0  0  0  0
  134.6414  127.9524  141.4602 C   0  0  0  0  0  0  0  0  0  0  0  0
  134.0545  127.3381  142.5594 C   0  0  0  0  0  0  0  0  0  0  0  0
  133.8533  125.9810  142.4816 C   0  0  0  0  0  0  0  0  0  0  0  0
  134.1930  125.2362  141.4088 N   0  0  0  0  0  0  0  0  0  0  0  0
  134.0419  124.9139  138.0699 C   0  0  2  0  0  0  0  0  0  0  0  0
  133.1614  126.1140  137.9573 C   0  0  0  0  0  0  0  0  0  0  0  0
  133.4157  126.7392  136.5978 C   0  0  0  0  0  0  0  0  0  0  0  0
  133.8827  128.1064  136.6936 N   0  0  0  0  0  0  0  0  0  0  0  0
  135.6269  127.9871  136.9003 Cl  0  0  0  0  0  0  0  0  0  0  0  0
  133.4227  128.6143  137.8812 F   0  0  0  0  0  0  0  0  0  0  0  0
  1  2  2  0
  2  3  1  0
  3  4  1  0
  4  5  2  0
  5  6  1  0
  6  7  2  0
  7  8  1  0
  7  9  1  0
  9 10  1  0
  9 11  2  0
  3 12  1  0
 12 13  1  1
 13 14  2  0
 14 15  1  0
 15 16  2  0
 16 17  1  0
 17 18  2  0
 12 19  1  0
 19 20  1  1
 20 21  1  0
 21 22  1  0
 22 23  1  0
 22 24  1  0
 19  2  1  0
 11  4  1  0
 18 13  1  0
M  END
>  <docking_score>  (3) 
-6.4909999999999997

$$$$
