
     RDKit          3D

 21 23  0  0  0  0  0  0  0  0999 V2000
  121.0349  121.3046  138.1696 C   0  0  0  0  0  0  0  0  0  0  0  0
  120.8659  121.8086  139.5307 N   0  0  0  0  0  0  0  0  0  0  0  0
  121.7497  122.9296  139.7097 C   0  0  0  0  0  0  0  0  0  0  0  0
  121.0068  124.2496  139.7936 C   0  0  0  0  0  0  0  0  0  0  0  0
  121.0767  124.7553  141.1590 N   0  0  0  0  0  0  0  0  0  0  0  0
  120.2774  124.1134  142.1360 C   0  0  0  0  0  0  0  0  0  0  0  0
  119.0484  123.5720  141.7868 C   0  0  0  0  0  0  0  0  0  0  0  0
  118.2066  122.9250  142.6615 C   0  0  0  0  0  0  0  0  0  0  0  0
  118.6973  122.6362  143.9183 C   0  0  0  0  0  0  0  0  0  0  0  0
  119.9488  123.0847  144.2974 C   0  0  0  0  0  0  0  0  0  0  0  0
  120.6977  123.8721  143.4307 C   0  0  0  0  0  0  0  0  0  0  0  0
  122.0361  124.2832  143.9189 C   0  0  0  0  0  0  0  0  0  0  0  0
  123.0861  123.1788  143.7021 C   0  0  0  0  0  0  0  0  0  0  0  0
  124.3460  123.7531  144.2308 C   0  0  0  0  0  0  0  0  0  0  0  0
  124.6727  125.0382  144.0868 C   0  0  0  0  0  0  0  0  0  0  0  0
  124.6124  125.7501  142.7446 N   0  0  0  0  0  0  0  0  0  0  0  0
  123.3136  125.8699  141.9378 C   0  0  0  0  0  0  0  0  0  0  0  0
  122.7556  125.9257  141.5806 C   0  0  0  0  0  0  0  0  0  0  0  0
  121.9873  126.0086  141.0887 C   0  0  0  0  0  0  0  0  0  0  0  0
  120.9922  127.0302  140.8208 C   0  0  0  0  0  0  0  0  0  0  0  0
  120.9922  127.0302  140.8208 C   0  0  0  0  0  0  0  0  0  0  0  0
  1  2  1  0
  2  3  1  0
  3  4  1  0
  4  5  1  0
  5  6  1  0
  6  7  2  0
  7  8  1  0
  8  9  2  0
  9 10  1  0
 10 11  2  0
 11 12  1  0
 12 13  1  0
 13 14  1  0
 14 15  2  3
 15 16  1  0
 16 17  1  0
 17 18  3  0
 18 19  1  0
 19 20  1  0
 20 21  3  0
 19  5  1  0
 11  6  1  0
 21 19  1  0
M  END
>  <docking_score>  (1) 
-6.6760000000000002

$$$$

     RDKit          3D

 21 23  0  0  0  0  0  0  0  0999 V2000
  137.0612  134.5770  141.5018 C   0  0  0  0  0  0  0  0  0  0  0  0
  137.8116  135.5193  142.3289 N   0  0  0  0  0  0  0  0  0  0  0  0
  139.1897  135.4825  141.9175 C   0  0  0  0  0  0  0  0  0  0  0  0
  139.8229  134.1193  142.1229 C   0  0  0  0  0  0  0  0  0  0  0  0
  140.9498  133.9696  141.2104 N   0  0  0  0  0  0  0  0  0  0  0  0
  140.6624  133.6241  139.8674 C   0  0  0  0  0  0  0  0  0  0  0  0
  139.5735  132.8164  139.5720 C   0  0  0  0  0  0  0  0  0  0  0  0
  139.2110  132.4335  138.3013 C   0  0  0  0  0  0  0  0  0  0  0  0
  139.8607  133.0402  137.2461 C   0  0  0  0  0  0  0  0  0  0  0  0
  140.9056  133.9144  137.4811 C   0  0  0  0  0  0  0  0  0  0  0  0
  141.3389  134.1472  138.7811 C   0  0  0  0  0  0  0  0  0  0  0  0
  142.4489  135.1187  138.9316 C   0  0  0  0  0  0  0  0  0  0  0  0
  141.9405  136.5714  138.9215 C   0  0  0  0  0  0  0  0  0  0  0  0
  143.1615  137.3950  139.0882 C   0  0  0  0  0  0  0  0  0  0  0  0
  144.1752  137.0360  139.8772 C   0  0  0  0  0  0  0  0  0  0  0  0
  143.9708  136.5901  141.3164 N   0  0  0  0  0  0  0  0  0  0  0  0
  143.1036  135.3798  141.6844 C   0  0  0  0  0  0  0  0  0  0  0  0
  142.7287  134.8575  141.8534 C   0  0  0  0  0  0  0  0  0  0  0  0
  142.2169  134.1351  142.0889 C   0  0  0  0  0  0  0  0  0  0  0  0
  142.4299  132.7566  142.4889 C   0  0  0  0  0  0  0  0  0  0  0  0
  142.4299  132.7566  142.4889 C   0  0  0  0  0  0  0  0  0  0  0  0
  1  2  1  0
  2  3  1  0
  3  4  1  0
  4  5  1  0
  5  6  1  0
  6  7  2  0
  7  8  1  0
  8  9  2  0
  9 10  1  0
 10 11  2  0
 11 12  1  0
 12 13  1  0
 13 14  1  0
 14 15  2  3
 15 16  1  0
 16 17  1  0
 17 18  3  0
 18 19  1  0
 19 20  1  0
 20 21  3  0
 19  5  1  0
 11  6  1  0
 21 19  1  0
M  END
>  <docking_score>  (2) 
-6.6500000000000004

$$$$

     RDKit          3D

 21 23  0  0  0  0  0  0  0  0999 V2000
  134.7607  114.0173  131.7025 C   0  0  0  0  0  0  0  0  0  0  0  0
  134.9187  113.5002  133.0599 N   0  0  0  0  0  0  0  0  0  0  0  0
  135.6335  114.4789  133.8352 C   0  0  0  0  0  0  0  0  0  0  0  0
  137.1128  114.1631  133.9514 C   0  0  0  0  0  0  0  0  0  0  0  0
  137.8366  115.3750  134.3150 N   0  0  0  0  0  0  0  0  0  0  0  0
  137.7951  116.4594  133.4051 C   0  0  0  0  0  0  0  0  0  0  0  0
  137.7213  116.2229  132.0398 C   0  0  0  0  0  0  0  0  0  0  0  0
  137.6695  117.2083  131.0813 C   0  0  0  0  0  0  0  0  0  0  0  0
  137.4946  118.5065  131.5145 C   0  0  0  0  0  0  0  0  0  0  0  0
  137.4834  118.7941  132.8667 C   0  0  0  0  0  0  0  0  0  0  0  0
  137.6988  117.7823  133.7950 C   0  0  0  0  0  0  0  0  0  0  0  0
  137.6438  118.1863  135.2206 C   0  0  0  0  0  0  0  0  0  0  0  0
  136.1961  118.2507  135.7395 C   0  0  0  0  0  0  0  0  0  0  0  0
  136.3266  118.6548  137.1595 C   0  0  0  0  0  0  0  0  0  0  0  0
  137.3118  118.2227  137.9480 C   0  0  0  0  0  0  0  0  0  0  0  0
  137.6752  116.7511  138.0680 N   0  0  0  0  0  0  0  0  0  0  0  0
  138.1178  115.9149  136.8609 C   0  0  0  0  0  0  0  0  0  0  0  0
  138.3095  115.5443  136.3433 C   0  0  0  0  0  0  0  0  0  0  0  0
  138.5789  115.0327  135.6328 C   0  0  0  0  0  0  0  0  0  0  0  0
  139.8243  114.5170  135.0957 C   0  0  0  0  0  0  0  0  0  0  0  0
  139.8243  114.5170  135.0957 C   0  0  0  0  0  0  0  0  0  0  0  0
  1  2  1  0
  2  3  1  0
  3  4  1  0
  4  5  1  0
  5  6  1  0
  6  7  2  0
  7  8  1  0
  8  9  2  0
  9 10  1  0
 10 11  2  0
 11 12  1  0
 12 13  1  0
 13 14  1  0
 14 15  2  3
 15 16  1  0
 16 17  1  0
 17 18  3  0
 18 19  1  0
 19 20  1  0
 20 21  3  0
 19  5  1  0
 11  6  1  0
 21 19  1  0
M  END
>  <docking_score>  (3) 
-6.3460000000000001

$$$$
