
     RDKit          3D

 21 23  0  0  0  0  0  0  0  0999 V2000
  139.5192  113.8425  136.4068 O   0  0  0  0  0  0  0  0  0  0  0  0
  139.0776  114.9262  135.9221 C   0  0  0  0  0  0  0  0  0  0  0  0
  139.1497  114.9779  134.4922 N   0  0  0  0  0  0  0  0  0  0  0  0
  138.3581  115.6486  133.4898 C   0  0  0  0  0  0  0  0  0  0  0  0
  138.5251  114.9724  132.3168 C   0  0  0  0  0  0  0  0  0  0  0  0
  137.8975  115.3605  131.1503 C   0  0  0  0  0  0  0  0  0  0  0  0
  138.1707  114.4319  129.6921 Cl  0  0  0  0  0  0  0  0  0  0  0  0
  137.0602  116.4794  131.1495 C   0  0  0  0  0  0  0  0  0  0  0  0
  136.8985  117.1547  132.3377 C   0  0  0  0  0  0  0  0  0  0  0  0
  136.0984  118.2397  132.3781 F   0  0  0  0  0  0  0  0  0  0  0  0
  137.5291  116.7600  133.4981 C   0  0  0  0  0  0  0  0  0  0  0  0
  138.6108  115.8512  136.8644 N   0  0  0  0  0  0  0  0  0  0  0  0
  137.7582  117.0073  136.9137 C   0  0  0  0  0  0  0  0  0  0  0  0
  137.4860  117.4665  138.3008 C   0  0  0  0  0  0  0  0  0  0  0  0
  136.5122  118.5839  138.1342 C   0  0  1  0  0  0  0  0  0  0  0  0
  136.3778  118.8578  136.6739 C   0  0  0  0  0  0  0  0  0  0  0  0
  137.1577  117.7604  136.0206 C   0  0  0  0  0  0  0  0  0  0  0  0
  137.1391  117.6890  134.5531 C   0  0  0  0  0  0  0  0  0  0  0  0
  136.6387  118.7399  134.0539 O   0  0  0  0  0  0  0  0  0  0  0  0
  135.2228  118.4057  138.8582 C   0  0  0  0  0  0  0  0  0  0  0  0
  134.7059  119.8085  139.7791 Cl  0  0  0  0  0  0  0  0  0  0  0  0
  1  2  2  0
  2  3  1  0
  3  4  1  0
  4  5  2  0
  5  6  1  0
  6  7  1  0
  6  8  2  0
  8  9  1  0
  9 10  1  0
  9 11  2  0
  2 12  1  0
 12 13  1  0
 13 14  1  0
 14 15  1  0
 15 16  1  0
 16 17  1  0
 17 18  1  0
 18 19  2  0
 15 20  1  6
 20 21  1  0
 11  4  1  0
 18 11  1  0
 13 17  2  0
M  END
>  <docking_score>  (1) 
-7.7430000000000003

$$$$

     RDKit          3D

 21 23  0  0  0  0  0  0  0  0999 V2000
  135.9453  118.1587  132.0494 O   0  0  0  0  0  0  0  0  0  0  0  0
  136.7970  117.6995  132.8667 C   0  0  0  0  0  0  0  0  0  0  0  0
  136.8076  118.3908  134.1215 N   0  0  0  0  0  0  0  0  0  0  0  0
  137.1311  117.9840  135.4673 C   0  0  0  0  0  0  0  0  0  0  0  0
  136.4992  118.8435  136.3175 C   0  0  0  0  0  0  0  0  0  0  0  0
  136.6042  118.7288  137.6890 C   0  0  0  0  0  0  0  0  0  0  0  0
  135.7578  119.8776  138.7024 Cl  0  0  0  0  0  0  0  0  0  0  0  0
  137.3781  117.7062  138.2446 C   0  0  0  0  0  0  0  0  0  0  0  0
  138.0115  116.8445  137.3785 C   0  0  0  0  0  0  0  0  0  0  0  0
  138.7676  115.8444  137.8757 F   0  0  0  0  0  0  0  0  0  0  0  0
  137.9010  116.9665  136.0100 C   0  0  0  0  0  0  0  0  0  0  0  0
  137.5530  116.6202  132.3923 N   0  0  0  0  0  0  0  0  0  0  0  0
  138.3589  115.5517  132.9166 C   0  0  0  0  0  0  0  0  0  0  0  0
  138.7606  114.5672  131.8782 C   0  0  0  0  0  0  0  0  0  0  0  0
  139.4802  113.5041  132.6376 C   0  0  1  0  0  0  0  0  0  0  0  0
  139.6297  113.9718  134.0464 C   0  0  0  0  0  0  0  0  0  0  0  0
  138.8286  115.2345  134.1016 C   0  0  0  0  0  0  0  0  0  0  0  0
  138.6913  115.9002  135.4043 C   0  0  0  0  0  0  0  0  0  0  0  0
  139.4919  115.4070  136.2526 O   0  0  0  0  0  0  0  0  0  0  0  0
  138.9131  112.1347  132.4903 C   0  0  0  0  0  0  0  0  0  0  0  0
  137.7965  111.9505  131.1478 Cl  0  0  0  0  0  0  0  0  0  0  0  0
  1  2  2  0
  2  3  1  0
  3  4  1  0
  4  5  2  0
  5  6  1  0
  6  7  1  0
  6  8  2  0
  8  9  1  0
  9 10  1  0
  9 11  2  0
  2 12  1  0
 12 13  1  0
 13 14  1  0
 14 15  1  0
 15 16  1  0
 16 17  1  0
 17 18  1  0
 18 19  2  0
 15 20  1  1
 20 21  1  0
 11  4  1  0
 18 11  1  0
 13 17  2  0
M  END
>  <docking_score>  (2) 
-7.1280000000000001

$$$$
