
     RDKit          3D

 31 34  0  0  0  0  0  0  0  0999 V2000
  129.0249  123.7544  141.7856 O   0  0  0  0  0  0  0  0  0  0  0  0
  128.9579  124.9042  142.2617 C   0  0  0  0  0  0  0  0  0  0  0  0
  129.8316  125.8893  142.7837 N   0  0  0  0  0  0  0  0  0  0  0  0
  131.2475  125.9746  142.8917 C   0  0  0  0  0  0  0  0  0  0  0  0
  131.8812  125.9805  144.0938 C   0  0  0  0  0  0  0  0  0  0  0  0
  133.2760  126.0631  144.1596 C   0  0  0  0  0  0  0  0  0  0  0  0
  134.0561  126.1411  143.0116 C   0  0  0  0  0  0  0  0  0  0  0  0
  135.4034  126.2198  143.0732 F   0  0  0  0  0  0  0  0  0  0  0  0
  133.4106  126.1351  141.7956 C   0  0  0  0  0  0  0  0  0  0  0  0
  134.3817  126.2338  140.3446 Cl  0  0  0  0  0  0  0  0  0  0  0  0
  132.0304  126.0529  141.7459 C   0  0  0  0  0  0  0  0  0  0  0  0
  128.7739  126.8085  143.1826 C   0  0  1  0  0  0  0  0  0  0  0  0
  128.7715  128.1080  142.4945 C   0  0  0  0  0  0  0  0  0  0  0  0
  128.6102  128.2484  141.1298 C   0  0  0  0  0  0  0  0  0  0  0  0
  128.6277  129.5258  140.6111 C   0  0  0  0  0  0  0  0  0  0  0  0
  128.7974  130.6268  141.4004 C   0  0  0  0  0  0  0  0  0  0  0  0
  128.9570  130.4599  142.7603 C   0  0  0  0  0  0  0  0  0  0  0  0
  128.9383  129.2227  143.2514 N   0  0  0  0  0  0  0  0  0  0  0  0
  127.8282  125.8290  142.5129 C   0  0  2  0  0  0  0  0  0  0  0  0
  126.7626  125.2679  143.4326 C   0  0  0  0  0  0  0  0  0  0  0  0
  125.4317  125.5023  142.8216 C   0  0  1  0  0  0  0  0  0  0  0  0
  124.3058  125.4531  143.6765 N   0  0  0  0  0  0  0  0  0  0  0  0
  123.3481  124.5038  143.4144 N   0  0  0  0  0  0  0  0  0  0  0  0
  122.8530  124.5570  142.1163 N   0  0  0  0  0  0  0  0  0  0  0  0
  122.3978  125.6185  141.2503 C   0  0  0  0  0  0  0  0  0  0  0  0
  123.0964  126.6746  140.7961 C   0  0  0  0  0  0  0  0  0  0  0  0
  122.3900  127.5041  139.9951 F   0  0  0  0  0  0  0  0  0  0  0  0
  124.4954  127.1232  140.9940 C   0  0  0  0  0  0  0  0  0  0  0  0
  125.3991  126.6062  141.8330 C   0  0  0  0  0  0  0  0  0  0  0  0
  124.7983  125.2004  145.0413 C   0  0  0  0  0  0  0  0  0  0  0  0
  124.3654  126.1678  145.9092 F   0  0  0  0  0  0  0  0  0  0  0  0
  1  2  2  0
  2  3  1  0
  3  4  1  0
  4  5  2  0
  5  6  1  0
  6  7  2  0
  7  8  1  0
  7  9  1  0
  9 10  1  0
  9 11  2  0
  3 12  1  0
 12 13  1  6
 13 14  2  0
 14 15  1  0
 15 16  2  0
 16 17  1  0
 17 18  2  0
 12 19  1  0
 19 20  1  1
 21 20  1  1
 21 22  1  0
 22 23  1  0
 23 24  1  0
 24 25  1  0
 25 26  2  3
 26 27  1  0
 26 28  1  0
 28 29  2  3
 22 30  1  0
 30 31  1  0
 19  2  1  0
 11  4  1  0
 18 13  1  0
 29 21  1  0
M  END
>  <docking_score>  (1) 
-7.8369999999999997

$$$$

     RDKit          3D

 31 34  0  0  0  0  0  0  0  0999 V2000
  131.3603  137.8049  139.6368 O   0  0  0  0  0  0  0  0  0  0  0  0
  130.5875  137.8820  140.6114 C   0  0  0  0  0  0  0  0  0  0  0  0
  129.8778  137.0118  141.4747 N   0  0  0  0  0  0  0  0  0  0  0  0
  129.8452  135.5966  141.6169 C   0  0  0  0  0  0  0  0  0  0  0  0
  130.6177  134.9439  142.5245 C   0  0  0  0  0  0  0  0  0  0  0  0
  130.5560  133.5509  142.6367 C   0  0  0  0  0  0  0  0  0  0  0  0
  129.7124  132.7921  141.8336 C   0  0  0  0  0  0  0  0  0  0  0  0
  129.6507  131.4468  141.9412 F   0  0  0  0  0  0  0  0  0  0  0  0
  128.9314  133.4569  140.9151 C   0  0  0  0  0  0  0  0  0  0  0  0
  127.8670  132.5125  139.8987 Cl  0  0  0  0  0  0  0  0  0  0  0  0
  129.0029  134.8350  140.8154 C   0  0  0  0  0  0  0  0  0  0  0  0
  129.1756  138.0719  142.1858 C   0  0  1  0  0  0  0  0  0  0  0  0
  129.4848  138.1854  143.6190 C   0  0  0  0  0  0  0  0  0  0  0  0
  128.7073  137.6251  144.6139 C   0  0  0  0  0  0  0  0  0  0  0  0
  129.1103  137.8069  145.9200 C   0  0  0  0  0  0  0  0  0  0  0  0
  130.2343  138.5123  146.2407 C   0  0  0  0  0  0  0  0  0  0  0  0
  130.9934  139.0625  145.2288 C   0  0  0  0  0  0  0  0  0  0  0  0
  130.5961  138.8811  143.9712 N   0  0  0  0  0  0  0  0  0  0  0  0
  130.0210  139.0261  141.3629 C   0  0  2  0  0  0  0  0  0  0  0  0
  129.2186  139.9888  140.5111 C   0  0  0  0  0  0  0  0  0  0  0  0
  129.0903  141.2763  141.2361 C   0  0  1  0  0  0  0  0  0  0  0  0
  129.5547  142.4407  140.5811 N   0  0  0  0  0  0  0  0  0  0  0  0
  130.5699  143.1463  141.1799 N   0  0  0  0  0  0  0  0  0  0  0  0
  130.2910  143.5181  142.4903 N   0  0  0  0  0  0  0  0  0  0  0  0
  129.1516  144.1055  143.1541 C   0  0  0  0  0  0  0  0  0  0  0  0
  127.9062  143.6078  143.2591 C   0  0  0  0  0  0  0  0  0  0  0  0
  127.0499  144.3964  143.9473 F   0  0  0  0  0  0  0  0  0  0  0  0
  127.2704  142.3607  142.7713 C   0  0  0  0  0  0  0  0  0  0  0  0
  127.8025  141.4501  141.9492 C   0  0  0  0  0  0  0  0  0  0  0  0
  130.0403  142.0353  139.2511 C   0  0  0  0  0  0  0  0  0  0  0  0
  129.1565  142.4009  138.2705 F   0  0  0  0  0  0  0  0  0  0  0  0
  1  2  2  0
  2  3  1  0
  3  4  1  0
  4  5  2  0
  5  6  1  0
  6  7  2  0
  7  8  1  0
  7  9  1  0
  9 10  1  0
  9 11  2  0
  3 12  1  0
 12 13  1  1
 13 14  2  0
 14 15  1  0
 15 16  2  0
 16 17  1  0
 17 18  2  0
 12 19  1  0
 19 20  1  6
 21 20  1  6
 21 22  1  0
 22 23  1  0
 23 24  1  0
 24 25  1  0
 25 26  2  3
 26 27  1  0
 26 28  1  0
 28 29  2  3
 22 30  1  0
 30 31  1  0
 19  2  1  0
 11  4  1  0
 18 13  1  0
 29 21  1  0
M  END
>  <docking_score>  (2) 
-7.4980000000000002

$$$$

     RDKit          3D

 31 34  0  0  0  0  0  0  0  0999 V2000
  134.5661  125.6979  135.7515 O   0  0  0  0  0  0  0  0  0  0  0  0
  134.1662  126.1189  136.8541 C   0  0  0  0  0  0  0  0  0  0  0  0
  133.6243  127.3067  137.4035 N   0  0  0  0  0  0  0  0  0  0  0  0
  133.2202  128.5459  136.8332 C   0  0  0  0  0  0  0  0  0  0  0  0
  131.9494  128.7631  136.4038 C   0  0  0  0  0  0  0  0  0  0  0  0
  131.5890  129.9963  135.8505 C   0  0  0  0  0  0  0  0  0  0  0  0
  132.5066  131.0326  135.7212 C   0  0  0  0  0  0  0  0  0  0  0  0
  132.1601  132.2247  135.1881 F   0  0  0  0  0  0  0  0  0  0  0  0
  133.7931  130.8087  136.1571 C   0  0  0  0  0  0  0  0  0  0  0  0
  134.9562  132.1049  135.9985 Cl  0  0  0  0  0  0  0  0  0  0  0  0
  134.1351  129.5840  136.7023 C   0  0  0  0  0  0  0  0  0  0  0  0
  133.6177  126.8271  138.7792 C   0  0  1  0  0  0  0  0  0  0  0  0
  132.2908  126.7076  139.4017 C   0  0  0  0  0  0  0  0  0  0  0  0
  131.8090  127.5922  140.3469 C   0  0  0  0  0  0  0  0  0  0  0  0
  130.5461  127.3648  140.8515 C   0  0  0  0  0  0  0  0  0  0  0  0
  129.7821  126.3088  140.4454 C   0  0  0  0  0  0  0  0  0  0  0  0
  130.2862  125.4393  139.5007 C   0  0  0  0  0  0  0  0  0  0  0  0
  131.5062  125.6676  139.0194 N   0  0  0  0  0  0  0  0  0  0  0  0
  134.0745  125.5021  138.1979 C   0  0  2  0  0  0  0  0  0  0  0  0
  135.3995  125.0092  138.7435 C   0  0  0  0  0  0  0  0  0  0  0  0
  135.2225  123.6280  139.2539 C   0  0  1  0  0  0  0  0  0  0  0  0
  136.2186  123.1226  140.1217 N   0  0  0  0  0  0  0  0  0  0  0  0
  136.9097  122.0066  139.7166 N   0  0  0  0  0  0  0  0  0  0  0  0
  136.0895  120.9317  139.3928 N   0  0  0  0  0  0  0  0  0  0  0  0
  134.9476  120.3069  140.0170 C   0  0  0  0  0  0  0  0  0  0  0  0
  133.7518  120.8564  140.2960 C   0  0  0  0  0  0  0  0  0  0  0  0
  132.8775  120.0114  140.8879 F   0  0  0  0  0  0  0  0  0  0  0  0
  133.1872  122.2112  140.0876 C   0  0  0  0  0  0  0  0  0  0  0  0
  133.8354  123.3002  139.6611 C   0  0  0  0  0  0  0  0  0  0  0  0
  137.2111  124.1917  140.3249 C   0  0  0  0  0  0  0  0  0  0  0  0
  138.4854  123.6891  140.3219 F   0  0  0  0  0  0  0  0  0  0  0  0
  1  2  2  0
  2  3  1  0
  3  4  1  0
  4  5  2  0
  5  6  1  0
  6  7  2  0
  7  8  1  0
  7  9  1  0
  9 10  1  0
  9 11  2  0
  3 12  1  0
 12 13  1  6
 13 14  2  0
 14 15  1  0
 15 16  2  0
 16 17  1  0
 17 18  2  0
 12 19  1  0
 19 20  1  1
 21 20  1  1
 21 22  1  0
 22 23  1  0
 23 24  1  0
 24 25  1  0
 25 26  2  3
 26 27  1  0
 26 28  1  0
 28 29  2  3
 22 30  1  0
 30 31  1  0
 19  2  1  0
 11  4  1  0
 18 13  1  0
 29 21  1  0
M  END
>  <docking_score>  (3) 
-7.4429999999999996

$$$$
