
     RDKit          3D

 12 12  0  0  0  0  0  0  0  0999 V2000
  139.4883  116.6437  133.5507 O   0  0  0  0  0  0  0  0  0  0  0  0
  138.6565  115.7928  133.9359 C   0  0  0  0  0  0  0  0  0  0  0  0
  137.8216  116.0398  135.0859 N   0  0  0  0  0  0  0  0  0  0  0  0
  138.5773  115.8076  136.2680 C   0  0  0  0  0  0  0  0  0  0  0  0
  138.4047  116.2772  137.5052 C   0  0  0  0  0  0  0  0  0  0  0  0
  137.4380  117.1767  138.1730 C   0  0  0  0  0  0  0  0  0  0  0  0
  136.5264  118.0271  137.7273 C   0  0  0  0  0  0  0  0  0  0  0  0
  135.7646  118.7349  138.7909 C   0  0  0  0  0  0  0  0  0  0  0  0
  134.5809  118.0141  138.9666 F   0  0  0  0  0  0  0  0  0  0  0  0
  136.4845  116.4430  134.7784 C   0  0  0  0  0  0  0  0  0  0  0  0
  136.1203  117.7910  135.2378 C   0  0  0  0  0  0  0  0  0  0  0  0
  136.1430  118.3870  136.3837 N   0  0  0  0  0  0  0  0  0  0  0  0
  1  2  2  0
  2  3  1  0
  3  4  1  0
  4  5  2  3
  5  6  1  0
  6  7  2  3
  7  8  1  0
  8  9  1  0
  3 10  1  0
 10 11  1  0
 11 12  2  3
 12  7  1  0
M  END
>  <docking_score>  (1) 
-4.4050000000000002

$$$$

     RDKit          3D

 12 12  0  0  0  0  0  0  0  0999 V2000
  138.9166  111.9791  163.1853 O   0  0  0  0  0  0  0  0  0  0  0  0
  139.5217  112.9249  163.7360 C   0  0  0  0  0  0  0  0  0  0  0  0
  140.7761  112.7079  164.4145 N   0  0  0  0  0  0  0  0  0  0  0  0
  140.7786  111.4040  164.9820 C   0  0  0  0  0  0  0  0  0  0  0  0
  141.8005  110.6155  165.3208 C   0  0  0  0  0  0  0  0  0  0  0  0
  143.2763  110.7123  165.2725 C   0  0  0  0  0  0  0  0  0  0  0  0
  144.1163  111.5297  164.6568 C   0  0  0  0  0  0  0  0  0  0  0  0
  145.5549  111.2431  164.9035 C   0  0  0  0  0  0  0  0  0  0  0  0
  146.1255  112.4481  165.3204 F   0  0  0  0  0  0  0  0  0  0  0  0
  141.6844  113.8110  164.3590 C   0  0  0  0  0  0  0  0  0  0  0  0
  142.9471  113.5420  163.6561 C   0  0  0  0  0  0  0  0  0  0  0  0
  143.8765  112.6542  163.7851 N   0  0  0  0  0  0  0  0  0  0  0  0
  1  2  2  0
  2  3  1  0
  3  4  1  0
  4  5  2  3
  5  6  1  0
  6  7  2  3
  7  8  1  0
  8  9  1  0
  3 10  1  0
 10 11  1  0
 11 12  2  3
 12  7  1  0
M  END
>  <docking_score>  (2) 
-2.702

$$$$

     RDKit          3D

 12 12  0  0  0  0  0  0  0  0999 V2000
  117.3843  121.8696  142.2030 O   0  0  0  0  0  0  0  0  0  0  0  0
  117.3797  123.0344  141.7477 C   0  0  0  0  0  0  0  0  0  0  0  0
  118.2232  123.3993  140.6359 N   0  0  0  0  0  0  0  0  0  0  0  0
  118.4635  124.8004  140.6745 C   0  0  0  0  0  0  0  0  0  0  0  0
  119.4618  125.5164  140.1532 C   0  0  0  0  0  0  0  0  0  0  0  0
  120.6776  125.2226  139.3626 C   0  0  0  0  0  0  0  0  0  0  0  0
  121.3367  124.1085  139.0845 C   0  0  0  0  0  0  0  0  0  0  0  0
  122.5384  124.2952  138.2280 C   0  0  0  0  0  0  0  0  0  0  0  0
  123.6213  123.8126  138.9669 F   0  0  0  0  0  0  0  0  0  0  0  0
  118.6030  122.3100  139.7909 C   0  0  0  0  0  0  0  0  0  0  0  0
  120.0456  122.0316  139.7458 C   0  0  0  0  0  0  0  0  0  0  0  0
  121.0899  122.7403  139.4701 N   0  0  0  0  0  0  0  0  0  0  0  0
  1  2  2  0
  2  3  1  0
  3  4  1  0
  4  5  2  3
  5  6  1  0
  6  7  2  3
  7  8  1  0
  8  9  1  0
  3 10  1  0
 10 11  1  0
 11 12  2  3
 12  7  1  0
M  END
>  <docking_score>  (3) 
-1.655

$$$$
