
     RDKit          3D

 25 26  0  0  0  0  0  0  0  0999 V2000
  144.0035  138.6804  136.9071 O   0  0  0  0  0  0  0  0  0  0  0  0
  144.4198  137.5305  137.3239 C   0  0  0  0  0  0  0  0  0  0  0  0
  143.7575  136.3669  137.4828 N   0  0  0  0  0  0  0  0  0  0  0  0
  142.8456  135.7729  138.3741 C   0  0  0  0  0  0  0  0  0  0  0  0
  142.1342  134.6280  137.9528 C   0  0  0  0  0  0  0  0  0  0  0  0
  141.2187  133.9795  138.7221 C   0  0  0  0  0  0  0  0  0  0  0  0
  140.3540  132.5559  138.1630 Cl  0  0  0  0  0  0  0  0  0  0  0  0
  140.9320  134.4244  139.9925 C   0  0  0  0  0  0  0  0  0  0  0  0
  141.6185  135.5386  140.4149 C   0  0  0  0  0  0  0  0  0  0  0  0
  141.3204  135.9934  141.6882 F   0  0  0  0  0  0  0  0  0  0  0  0
  142.5618  136.2189  139.6438 C   0  0  0  0  0  0  0  0  0  0  0  0
  145.8369  137.5913  137.6481 N   0  0  0  0  0  0  0  0  0  0  0  0
  146.5694  136.4860  138.1876 C   0  0  0  0  0  0  0  0  0  0  0  0
  147.5984  136.9873  139.1779 C   0  0  0  0  0  0  0  0  0  0  0  0
  146.9832  136.9810  140.5742 C   0  0  1  0  0  0  0  0  0  0  0  0
  145.5421  136.5532  140.4926 C   0  0  0  0  0  0  0  0  0  0  0  0
  144.6585  137.7237  140.1424 C   0  0  0  0  0  0  0  0  0  0  0  0
  143.2187  137.3958  140.2591 C   0  0  0  0  0  0  0  0  0  0  0  0
  142.4814  138.1612  140.9274 O   0  0  0  0  0  0  0  0  0  0  0  0
  147.8006  136.0139  141.4243 C   0  0  0  0  0  0  0  0  0  0  0  0
  147.0530  138.3805  141.1037 C   0  0  0  0  0  0  0  0  0  0  0  0
  148.5992  138.6083  142.0099 S   0  0  0  0  0  0  0  0  0  0  0  0
  149.8654  139.0711  140.8357 C   0  0  0  0  0  0  0  0  0  0  0  0
  150.2972  140.3366  140.7038 C   0  0  0  0  0  0  0  0  0  0  0  0
  149.6314  141.6147  141.6898 Cl  0  0  0  0  0  0  0  0  0  0  0  0
  1  2  2  0
  2  3  1  0
  3  4  1  0
  4  5  2  0
  5  6  1  0
  6  7  1  0
  6  8  2  0
  8  9  1  0
  9 10  1  0
  9 11  2  0
  2 12  1  0
 12 13  1  0
 13 14  1  0
 14 15  1  0
 15 16  1  0
 16 17  1  0
 17 18  1  0
 18 19  2  0
 15 20  1  1
 15 21  1  0
 21 22  1  0
 22 23  1  0
 23 24  2  3
 24 25  1  0
 11  4  1  0
 18 11  1  0
M  END
>  <docking_score>  (1) 
-7.149

$$$$

     RDKit          3D

 25 26  0  0  0  0  0  0  0  0999 V2000
  130.7953  141.0034  142.6081 O   0  0  0  0  0  0  0  0  0  0  0  0
  129.7563  140.3262  142.2459 C   0  0  0  0  0  0  0  0  0  0  0  0
  128.6408  140.0045  142.9314 N   0  0  0  0  0  0  0  0  0  0  0  0
  128.2269  139.1073  143.9327 C   0  0  0  0  0  0  0  0  0  0  0  0
  127.0134  139.3597  144.6094 C   0  0  0  0  0  0  0  0  0  0  0  0
  126.5218  138.5708  145.6026 C   0  0  0  0  0  0  0  0  0  0  0  0
  125.0060  138.9171  146.4208 Cl  0  0  0  0  0  0  0  0  0  0  0  0
  127.2083  137.4497  146.0098 C   0  0  0  0  0  0  0  0  0  0  0  0
  128.3917  137.1925  145.3582 C   0  0  0  0  0  0  0  0  0  0  0  0
  129.0883  136.0715  145.7769 F   0  0  0  0  0  0  0  0  0  0  0  0
  128.9144  137.9867  144.3368 C   0  0  0  0  0  0  0  0  0  0  0  0
  129.8958  139.8821  140.8673 N   0  0  0  0  0  0  0  0  0  0  0  0
  128.9285  139.0628  140.2023 C   0  0  0  0  0  0  0  0  0  0  0  0
  129.6284  138.0957  139.2719 C   0  0  0  0  0  0  0  0  0  0  0  0
  129.8945  136.7942  140.0226 C   0  0  1  0  0  0  0  0  0  0  0  0
  129.4435  136.9309  141.4524 C   0  0  0  0  0  0  0  0  0  0  0  0
  130.5110  137.5936  142.2860 C   0  0  0  0  0  0  0  0  0  0  0  0
  130.1975  137.5569  143.7332 C   0  0  0  0  0  0  0  0  0  0  0  0
  131.0729  137.1313  144.5260 O   0  0  0  0  0  0  0  0  0  0  0  0
  129.1254  135.6914  139.3026 C   0  0  0  0  0  0  0  0  0  0  0  0
  131.3722  136.5506  139.9926 C   0  0  0  0  0  0  0  0  0  0  0  0
  131.6929  134.7727  140.0039 S   0  0  0  0  0  0  0  0  0  0  0  0
  132.4674  134.3604  141.5616 C   0  0  0  0  0  0  0  0  0  0  0  0
  131.7685  133.9048  142.6149 C   0  0  0  0  0  0  0  0  0  0  0  0
  130.0388  133.6892  142.5132 Cl  0  0  0  0  0  0  0  0  0  0  0  0
  1  2  2  0
  2  3  1  0
  3  4  1  0
  4  5  2  0
  5  6  1  0
  6  7  1  0
  6  8  2  0
  8  9  1  0
  9 10  1  0
  9 11  2  0
  2 12  1  0
 12 13  1  0
 13 14  1  0
 14 15  1  0
 15 16  1  0
 16 17  1  0
 17 18  1  0
 18 19  2  0
 15 20  1  6
 15 21  1  0
 21 22  1  0
 22 23  1  0
 23 24  2  3
 24 25  1  0
 11  4  1  0
 18 11  1  0
M  END
>  <docking_score>  (2) 
-7.1369999999999996

$$$$

     RDKit          3D

 25 26  0  0  0  0  0  0  0  0999 V2000
  132.2798  133.8894  141.7105 O   0  0  0  0  0  0  0  0  0  0  0  0
  132.4953  134.5565  140.6252 C   0  0  0  0  0  0  0  0  0  0  0  0
  132.2153  135.8391  140.3180 N   0  0  0  0  0  0  0  0  0  0  0  0
  131.1092  136.6331  139.9645 C   0  0  0  0  0  0  0  0  0  0  0  0
  131.2210  138.0369  140.0711 C   0  0  0  0  0  0  0  0  0  0  0  0
  130.2146  138.9017  139.7714 C   0  0  0  0  0  0  0  0  0  0  0  0
  130.3922  140.6437  139.9154 Cl  0  0  0  0  0  0  0  0  0  0  0  0
  128.9964  138.4330  139.3350 C   0  0  0  0  0  0  0  0  0  0  0  0
  128.8748  137.0675  139.2266 C   0  0  0  0  0  0  0  0  0  0  0  0
  127.6450  136.5958  138.7997 F   0  0  0  0  0  0  0  0  0  0  0  0
  129.8932  136.1621  139.5274 C   0  0  0  0  0  0  0  0  0  0  0  0
  133.1477  133.7147  139.6337 N   0  0  0  0  0  0  0  0  0  0  0  0
  133.4646  134.1583  138.3101 C   0  0  0  0  0  0  0  0  0  0  0  0
  133.2803  133.0199  137.3299 C   0  0  0  0  0  0  0  0  0  0  0  0
  131.8603  133.0730  136.7737 C   0  0  1  0  0  0  0  0  0  0  0  0
  131.0959  134.1872  137.4375 C   0  0  0  0  0  0  0  0  0  0  0  0
  130.5285  133.7304  138.7577 C   0  0  0  0  0  0  0  0  0  0  0  0
  129.5966  134.7223  139.3423 C   0  0  0  0  0  0  0  0  0  0  0  0
  128.4628  134.3332  139.7151 O   0  0  0  0  0  0  0  0  0  0  0  0
  131.9719  133.2977  135.2694 C   0  0  0  0  0  0  0  0  0  0  0  0
  131.2024  131.7655  137.0921 C   0  0  0  0  0  0  0  0  0  0  0  0
  132.3398  130.4106  136.7256 S   0  0  0  0  0  0  0  0  0  0  0  0
  131.5815  129.3727  135.4831 C   0  0  0  0  0  0  0  0  0  0  0  0
  132.2968  128.5495  134.6982 C   0  0  0  0  0  0  0  0  0  0  0  0
  134.0330  128.4508  134.8551 Cl  0  0  0  0  0  0  0  0  0  0  0  0
  1  2  2  0
  2  3  1  0
  3  4  1  0
  4  5  2  0
  5  6  1  0
  6  7  1  0
  6  8  2  0
  8  9  1  0
  9 10  1  0
  9 11  2  0
  2 12  1  0
 12 13  1  0
 13 14  1  0
 14 15  1  0
 15 16  1  0
 16 17  1  0
 17 18  1  0
 18 19  2  0
 15 20  1  6
 15 21  1  0
 21 22  1  0
 22 23  1  0
 23 24  2  3
 24 25  1  0
 11  4  1  0
 18 11  1  0
M  END
>  <docking_score>  (3) 
-7.0330000000000004

$$$$
