
     RDKit          3D

 29 33  0  0  0  0  0  0  0  0999 V2000
  126.8113  124.9864  144.5437 O   0  0  0  0  0  0  0  0  0  0  0  0
  126.2807  125.4560  143.4539 C   0  0  0  0  0  0  0  0  0  0  0  0
  124.9041  125.3537  143.3590 N   0  0  0  0  0  0  0  0  0  0  0  0
  124.0309  124.7717  144.3960 C   0  0  1  0  0  0  0  0  0  0  0  0
  123.2427  125.8336  145.1846 C   0  0  0  0  0  0  0  0  0  0  0  0
  122.5595  124.9059  144.2151 C   0  0  1  0  0  0  0  0  0  0  0  0
  122.1619  125.4113  142.8855 C   0  0  0  0  0  0  0  0  0  0  0  0
  122.2300  126.7529  142.6257 C   0  0  0  0  0  0  0  0  0  0  0  0
  121.8547  127.1741  141.3479 C   0  0  0  0  0  0  0  0  0  0  0  0
  121.4363  126.2856  140.3950 C   0  0  0  0  0  0  0  0  0  0  0  0
  121.3617  124.9150  140.6479 C   0  0  0  0  0  0  0  0  0  0  0  0
  121.7434  124.5428  141.9278 C   0  0  0  0  0  0  0  0  0  0  0  0
  127.2084  125.9869  142.5520 N   0  0  0  0  0  0  0  0  0  0  0  0
  128.6485  126.0155  142.8175 C   0  0  1  0  0  0  0  0  0  0  0  0
  129.3941  124.9637  142.0460 C   0  0  0  0  0  0  0  0  0  0  0  0
  130.6814  125.7011  141.6682 C   0  0  2  0  0  0  0  0  0  0  0  0
  131.4828  126.0102  142.8870 C   0  0  0  0  0  0  0  0  0  0  0  0
  132.2179  127.1104  143.1203 N   0  0  0  0  0  0  0  0  0  0  0  0
  132.7959  127.0306  144.3262 C   0  0  0  0  0  0  0  0  0  0  0  0
  133.6830  128.0401  144.9517 C   0  0  0  0  0  0  0  0  0  0  0  0
  133.1065  129.1178  145.5859 C   0  0  0  0  0  0  0  0  0  0  0  0
  133.8884  130.0769  146.1866 C   0  0  0  0  0  0  0  0  0  0  0  0
  135.2470  129.8966  146.1140 C   0  0  0  0  0  0  0  0  0  0  0  0
  135.8030  128.8124  145.4744 C   0  0  0  0  0  0  0  0  0  0  0  0
  135.0012  127.9146  144.9105 N   0  0  0  0  0  0  0  0  0  0  0  0
  132.3988  125.8521  144.8315 N   0  0  0  0  0  0  0  0  0  0  0  0
  131.6215  125.2661  143.9596 O   0  0  0  0  0  0  0  0  0  0  0  0
  130.0771  127.0316  141.1897 C   0  0  0  0  0  0  0  0  0  0  0  0
  129.2299  127.3571  142.4299 C   0  0  0  0  0  0  0  0  0  0  0  0
  1  2  2  0
  2  3  1  0
  4  3  1  6
  4  5  1  0
  5  6  1  0
  6  7  1  6
  7  8  2  0
  8  9  1  0
  9 10  2  0
 10 11  1  0
 11 12  2  0
  2 13  1  0
 14 13  1  6
 14 15  1  0
 15 16  1  0
 16 17  1  1
 17 18  2  0
 18 19  1  0
 19 20  1  0
 20 21  2  0
 21 22  1  0
 22 23  2  0
 23 24  1  0
 24 25  2  0
 19 26  2  0
 26 27  1  0
 16 28  1  0
 28 29  1  0
  6  4  1  0
 12  7  1  0
 29 14  1  0
 27 17  1  0
 25 20  1  0
M  END
>  <docking_score>  (1) 
-8.1500000000000004

$$$$

     RDKit          3D

 29 33  0  0  0  0  0  0  0  0999 V2000
  135.8530  132.8152  138.1367 O   0  0  0  0  0  0  0  0  0  0  0  0
  136.2030  131.8371  137.3552 C   0  0  0  0  0  0  0  0  0  0  0  0
  137.5606  131.5808  137.2784 N   0  0  0  0  0  0  0  0  0  0  0  0
  138.5993  132.3226  138.0184 C   0  0  1  0  0  0  0  0  0  0  0  0
  139.9822  131.6485  137.9530 C   0  0  0  0  0  0  0  0  0  0  0  0
  139.7014  132.9394  137.2304 C   0  0  1  0  0  0  0  0  0  0  0  0
  139.4791  132.9196  135.7704 C   0  0  0  0  0  0  0  0  0  0  0  0
  140.1211  131.9865  135.0029 C   0  0  0  0  0  0  0  0  0  0  0  0
  139.8641  132.0050  133.6301 C   0  0  0  0  0  0  0  0  0  0  0  0
  139.0077  132.9160  133.0739 C   0  0  0  0  0  0  0  0  0  0  0  0
  138.3475  133.8732  133.8459 C   0  0  0  0  0  0  0  0  0  0  0  0
  138.6324  133.8176  135.2016 C   0  0  0  0  0  0  0  0  0  0  0  0
  135.1304  131.2078  136.7154 N   0  0  0  0  0  0  0  0  0  0  0  0
  133.7372  131.6130  136.9151 C   0  0  1  0  0  0  0  0  0  0  0  0
  133.0391  131.9208  135.6208 C   0  0  0  0  0  0  0  0  0  0  0  0
  131.6382  131.3582  135.8752 C   0  0  2  0  0  0  0  0  0  0  0  0
  130.9505  132.1344  136.9466 C   0  0  0  0  0  0  0  0  0  0  0  0
  130.8731  133.4709  137.0613 N   0  0  0  0  0  0  0  0  0  0  0  0
  130.1729  133.7991  138.1551 C   0  0  0  0  0  0  0  0  0  0  0  0
  129.8644  135.1686  138.6314 C   0  0  0  0  0  0  0  0  0  0  0  0
  128.5835  135.6471  138.4694 C   0  0  0  0  0  0  0  0  0  0  0  0
  128.2479  136.9092  138.9013 C   0  0  0  0  0  0  0  0  0  0  0  0
  129.2473  137.6441  139.4884 C   0  0  0  0  0  0  0  0  0  0  0  0
  130.5215  137.1472  139.6401 C   0  0  0  0  0  0  0  0  0  0  0  0
  130.7921  135.9207  139.2050 N   0  0  0  0  0  0  0  0  0  0  0  0
  129.8201  132.6304  138.7132 N   0  0  0  0  0  0  0  0  0  0  0  0
  130.2930  131.6587  137.9784 O   0  0  0  0  0  0  0  0  0  0  0  0
  132.0204  130.0020  136.4905 C   0  0  0  0  0  0  0  0  0  0  0  0
  132.9592  130.5091  137.5966 C   0  0  0  0  0  0  0  0  0  0  0  0
  1  2  2  0
  2  3  1  0
  4  3  1  6
  4  5  1  0
  5  6  1  0
  6  7  1  6
  7  8  2  0
  8  9  1  0
  9 10  2  0
 10 11  1  0
 11 12  2  0
  2 13  1  0
 14 13  1  6
 14 15  1  0
 15 16  1  0
 16 17  1  1
 17 18  2  0
 18 19  1  0
 19 20  1  0
 20 21  2  0
 21 22  1  0
 22 23  2  0
 23 24  1  0
 24 25  2  0
 19 26  2  0
 26 27  1  0
 16 28  1  0
 28 29  1  0
  6  4  1  0
 12  7  1  0
 29 14  1  0
 27 17  1  0
 25 20  1  0
M  END
>  <docking_score>  (2) 
-7.7439999999999998

$$$$

     RDKit          3D

 29 33  0  0  0  0  0  0  0  0999 V2000
  131.1769  135.9562  142.0257 O   0  0  0  0  0  0  0  0  0  0  0  0
  129.9335  136.3299  142.0886 C   0  0  0  0  0  0  0  0  0  0  0  0
  129.5845  137.0857  143.1938 N   0  0  0  0  0  0  0  0  0  0  0  0
  130.5160  137.4889  144.2646 C   0  0  1  0  0  0  0  0  0  0  0  0
  130.7045  139.0145  144.3554 C   0  0  0  0  0  0  0  0  0  0  0  0
  129.9574  138.2496  145.4158 C   0  0  1  0  0  0  0  0  0  0  0  0
  128.4816  138.3003  145.4423 C   0  0  0  0  0  0  0  0  0  0  0  0
  127.7757  137.1969  145.8376 C   0  0  0  0  0  0  0  0  0  0  0  0
  126.3832  137.3047  145.8564 C   0  0  0  0  0  0  0  0  0  0  0  0
  125.7495  138.4626  145.4955 C   0  0  0  0  0  0  0  0  0  0  0  0
  126.4581  139.5945  145.0897 C   0  0  0  0  0  0  0  0  0  0  0  0
  127.8362  139.4420  145.0864 C   0  0  0  0  0  0  0  0  0  0  0  0
  129.1525  135.8926  141.0140 N   0  0  0  0  0  0  0  0  0  0  0  0
  129.6922  135.0903  139.9138 C   0  0  1  0  0  0  0  0  0  0  0  0
  129.0042  133.7610  139.7832 C   0  0  0  0  0  0  0  0  0  0  0  0
  128.9367  133.5874  138.2637 C   0  0  2  0  0  0  0  0  0  0  0  0
  130.3065  133.4368  137.6942 C   0  0  0  0  0  0  0  0  0  0  0  0
  131.3308  132.7380  138.2118 N   0  0  0  0  0  0  0  0  0  0  0  0
  132.4041  132.8373  137.4164 C   0  0  0  0  0  0  0  0  0  0  0  0
  133.7303  132.2127  137.6363 C   0  0  0  0  0  0  0  0  0  0  0  0
  134.5940  132.8034  138.5313 C   0  0  0  0  0  0  0  0  0  0  0  0
  135.8329  132.2568  138.7735 C   0  0  0  0  0  0  0  0  0  0  0  0
  136.1463  131.1137  138.0818 C   0  0  0  0  0  0  0  0  0  0  0  0
  135.2686  130.5396  137.1909 C   0  0  0  0  0  0  0  0  0  0  0  0
  134.0837  131.1089  136.9944 N   0  0  0  0  0  0  0  0  0  0  0  0
  132.0161  133.6160  136.3942 N   0  0  0  0  0  0  0  0  0  0  0  0
  130.7690  133.9585  136.5819 O   0  0  0  0  0  0  0  0  0  0  0  0
  128.4492  134.9921  137.8721 C   0  0  0  0  0  0  0  0  0  0  0  0
  129.5231  135.8175  138.5982 C   0  0  0  0  0  0  0  0  0  0  0  0
  1  2  2  0
  2  3  1  0
  4  3  1  6
  4  5  1  0
  5  6  1  0
  6  7  1  6
  7  8  2  0
  8  9  1  0
  9 10  2  0
 10 11  1  0
 11 12  2  0
  2 13  1  0
 14 13  1  1
 14 15  1  0
 15 16  1  0
 16 17  1  6
 17 18  2  0
 18 19  1  0
 19 20  1  0
 20 21  2  0
 21 22  1  0
 22 23  2  0
 23 24  1  0
 24 25  2  0
 19 26  2  0
 26 27  1  0
 16 28  1  0
 28 29  1  0
  6  4  1  0
 12  7  1  0
 29 14  1  0
 27 17  1  0
 25 20  1  0
M  END
>  <docking_score>  (3) 
-7.3680000000000003

$$$$
