
     RDKit          3D

 20 21  0  0  0  0  0  0  0  0999 V2000
  119.7445  122.9682  144.7717 O   0  0  0  0  0  0  0  0  0  0  0  0
  120.6120  123.0042  143.8265 C   0  0  0  0  0  0  0  0  0  0  0  0
  120.3812  123.5099  142.5709 N   0  0  0  0  0  0  0  0  0  0  0  0
  121.1790  124.0492  141.5650 C   0  0  0  0  0  0  0  0  0  0  0  0
  121.0744  123.4732  140.2871 C   0  0  0  0  0  0  0  0  0  0  0  0
  121.7957  123.9161  139.2056 C   0  0  0  0  0  0  0  0  0  0  0  0
  121.5499  123.0840  137.6637 Cl  0  0  0  0  0  0  0  0  0  0  0  0
  122.6768  124.9696  139.3195 C   0  0  0  0  0  0  0  0  0  0  0  0
  122.7805  125.5364  140.5741 C   0  0  0  0  0  0  0  0  0  0  0  0
  123.9165  126.8939  140.6780 Cl  0  0  0  0  0  0  0  0  0  0  0  0
  122.0558  125.0988  141.6819 C   0  0  0  0  0  0  0  0  0  0  0  0
  121.8811  122.4690  144.1617 N   0  0  0  0  0  0  0  0  0  0  0  0
  123.1472  123.0158  143.7239 C   0  0  0  0  0  0  0  0  0  0  0  0
  124.0014  123.2444  144.9681 C   0  0  0  0  0  0  0  0  0  0  0  0
  124.5244  124.6661  144.9911 C   0  0  2  0  0  0  0  0  0  0  0  0
  123.4159  125.6688  145.1536 C   0  0  0  0  0  0  0  0  0  0  0  0
  122.2534  125.2433  144.2951 C   0  0  0  0  0  0  0  0  0  0  0  0
  122.2833  125.8186  142.9386 C   0  0  0  0  0  0  0  0  0  0  0  0
  122.5307  127.0609  142.8456 O   0  0  0  0  0  0  0  0  0  0  0  0
  125.4525  124.9611  143.4837 Cl  0  0  0  0  0  0  0  0  0  0  0  0
  1  2  2  0
  2  3  1  0
  3  4  1  0
  4  5  2  0
  5  6  1  0
  6  7  1  0
  6  8  2  0
  8  9  1  0
  9 10  1  0
  9 11  2  0
  2 12  1  0
 12 13  1  0
 13 14  1  0
 14 15  1  0
 15 16  1  0
 16 17  1  0
 17 18  1  0
 18 19  2  0
 15 20  1  6
 11  4  1  0
 18 11  1  0
M  END
>  <docking_score>  (1) 
-7.657

$$$$

     RDKit          3D

 20 21  0  0  0  0  0  0  0  0999 V2000
  139.9020  112.9874  135.5231 O   0  0  0  0  0  0  0  0  0  0  0  0
  138.8805  113.7643  135.5358 C   0  0  0  0  0  0  0  0  0  0  0  0
  138.8556  115.0155  136.1011 N   0  0  0  0  0  0  0  0  0  0  0  0
  138.1048  116.1711  135.9012 C   0  0  0  0  0  0  0  0  0  0  0  0
  137.4625  116.7195  137.0249 C   0  0  0  0  0  0  0  0  0  0  0  0
  136.7012  117.8612  136.9684 C   0  0  0  0  0  0  0  0  0  0  0  0
  135.9586  118.4229  138.4727 Cl  0  0  0  0  0  0  0  0  0  0  0  0
  136.5243  118.5420  135.7834 C   0  0  0  0  0  0  0  0  0  0  0  0
  137.1547  118.0045  134.6789 C   0  0  0  0  0  0  0  0  0  0  0  0
  136.9109  118.9136  133.1761 Cl  0  0  0  0  0  0  0  0  0  0  0  0
  137.9306  116.8469  134.7193 C   0  0  0  0  0  0  0  0  0  0  0  0
  137.7242  113.2388  134.9064 N   0  0  0  0  0  0  0  0  0  0  0  0
  136.8017  114.0106  134.1021 C   0  0  0  0  0  0  0  0  0  0  0  0
  136.6635  113.3016  132.7574 C   0  0  0  0  0  0  0  0  0  0  0  0
  136.9161  114.2741  131.6235 C   0  0  2  0  0  0  0  0  0  0  0  0
  138.3397  114.7573  131.6059 C   0  0  0  0  0  0  0  0  0  0  0  0
  138.7724  115.0297  133.0229 C   0  0  0  0  0  0  0  0  0  0  0  0
  138.5334  116.4187  133.4535 C   0  0  0  0  0  0  0  0  0  0  0  0
  138.8830  117.3384  132.6503 O   0  0  0  0  0  0  0  0  0  0  0  0
  135.7662  115.6437  131.7746 Cl  0  0  0  0  0  0  0  0  0  0  0  0
  1  2  2  0
  2  3  1  0
  3  4  1  0
  4  5  2  0
  5  6  1  0
  6  7  1  0
  6  8  2  0
  8  9  1  0
  9 10  1  0
  9 11  2  0
  2 12  1  0
 12 13  1  0
 13 14  1  0
 14 15  1  0
 15 16  1  0
 16 17  1  0
 17 18  1  0
 18 19  2  0
 15 20  1  1
 11  4  1  0
 18 11  1  0
M  END
>  <docking_score>  (2) 
-6.7460000000000004

$$$$

     RDKit          3D

 20 21  0  0  0  0  0  0  0  0999 V2000
  130.5084  141.9864  142.7395 O   0  0  0  0  0  0  0  0  0  0  0  0
  129.7773  140.9726  142.4481 C   0  0  0  0  0  0  0  0  0  0  0  0
  130.0761  140.0435  141.4822 N   0  0  0  0  0  0  0  0  0  0  0  0
  129.7390  138.7107  141.2605 C   0  0  0  0  0  0  0  0  0  0  0  0
  129.1806  138.3910  140.0107 C   0  0  0  0  0  0  0  0  0  0  0  0
  128.8143  137.1148  139.6595 C   0  0  0  0  0  0  0  0  0  0  0  0
  128.1252  136.8774  138.0474 Cl  0  0  0  0  0  0  0  0  0  0  0  0
  128.9788  136.0605  140.5316 C   0  0  0  0  0  0  0  0  0  0  0  0
  129.5272  136.3731  141.7594 C   0  0  0  0  0  0  0  0  0  0  0  0
  129.7313  134.9893  142.8492 Cl  0  0  0  0  0  0  0  0  0  0  0  0
  129.9042  137.6628  142.1315 C   0  0  0  0  0  0  0  0  0  0  0  0
  128.5884  140.8563  143.2113 N   0  0  0  0  0  0  0  0  0  0  0  0
  128.0349  139.6074  143.6884 C   0  0  0  0  0  0  0  0  0  0  0  0
  127.8287  139.7443  145.1946 C   0  0  0  0  0  0  0  0  0  0  0  0
  128.4833  138.5869  145.9208 C   0  0  2  0  0  0  0  0  0  0  0  0
  129.9801  138.6120  145.7812 C   0  0  0  0  0  0  0  0  0  0  0  0
  130.3243  138.9811  144.3618 C   0  0  0  0  0  0  0  0  0  0  0  0
  130.4767  137.8160  143.4723 C   0  0  0  0  0  0  0  0  0  0  0  0
  131.1724  136.8466  143.9077 O   0  0  0  0  0  0  0  0  0  0  0  0
  127.7970  137.0525  145.2923 Cl  0  0  0  0  0  0  0  0  0  0  0  0
  1  2  2  0
  2  3  1  0
  3  4  1  0
  4  5  2  0
  5  6  1  0
  6  7  1  0
  6  8  2  0
  8  9  1  0
  9 10  1  0
  9 11  2  0
  2 12  1  0
 12 13  1  0
 13 14  1  0
 14 15  1  0
 15 16  1  0
 16 17  1  0
 17 18  1  0
 18 19  2  0
 15 20  1  6
 11  4  1  0
 18 11  1  0
M  END
>  <docking_score>  (3) 
-6.702

$$$$
