
     RDKit          3D

 21 23  0  0  0  0  0  0  0  0999 V2000
  136.9707  118.5559  131.9763 O   0  0  0  0  0  0  0  0  0  0  0  0
  137.3077  117.8090  132.9321 C   0  0  0  0  0  0  0  0  0  0  0  0
  136.9443  118.3169  134.2174 N   0  0  0  0  0  0  0  0  0  0  0  0
  137.1952  117.8756  135.5537 C   0  0  0  0  0  0  0  0  0  0  0  0
  136.4371  118.6936  136.3839 C   0  0  0  0  0  0  0  0  0  0  0  0
  136.4496  118.5331  137.7575 C   0  0  0  0  0  0  0  0  0  0  0  0
  135.4945  119.5633  138.8054 Cl  0  0  0  0  0  0  0  0  0  0  0  0
  137.2453  117.5285  138.2678 C   0  0  0  0  0  0  0  0  0  0  0  0
  137.9995  116.7150  137.4393 C   0  0  0  0  0  0  0  0  0  0  0  0
  138.7885  115.7209  137.9269 F   0  0  0  0  0  0  0  0  0  0  0  0
  137.9795  116.8836  136.0738 C   0  0  0  0  0  0  0  0  0  0  0  0
  137.9867  116.6033  132.5302 N   0  0  0  0  0  0  0  0  0  0  0  0
  138.1938  115.3421  133.1680 C   0  0  1  0  0  0  0  0  0  0  0  0
  138.3084  114.1767  132.2737 C   0  0  0  0  0  0  0  0  0  0  0  0
  139.7357  113.8650  132.0131 C   0  0  0  0  0  0  0  0  0  0  0  0
  139.5087  113.5747  134.4370 S   0  0  1  0  0  0  0  0  0  0  0  0
  139.2383  115.3151  134.2076 C   0  0  2  0  0  0  0  0  0  0  0  0
  138.8748  115.8749  135.4989 C   0  0  0  0  0  0  0  0  0  0  0  0
  139.5347  115.3249  136.4400 O   0  0  0  0  0  0  0  0  0  0  0  0
  138.9005  112.2758  134.5056 C   0  0  0  0  0  0  0  0  0  0  0  0
  137.9916  111.8444  135.4804 F   0  0  0  0  0  0  0  0  0  0  0  0
  1  2  2  0
  2  3  1  0
  3  4  1  0
  4  5  2  0
  5  6  1  0
  6  7  1  0
  6  8  2  0
  8  9  1  0
  9 10  1  0
  9 11  2  0
  2 12  1  0
 12 13  1  0
 13 14  1  6
 14 15  1  0
 15 16  1  0
 16 17  1  0
 17 18  1  1
 18 19  2  0
 16 20  1  6
 20 21  1  0
 11  4  1  0
 18 11  1  0
 17 13  1  0
M  END
>  <docking_score>  (1) 
-7.0359999999999996

$$$$

     RDKit          3D

 21 23  0  0  0  0  0  0  0  0999 V2000
  123.8490  123.9465  143.8520 O   0  0  0  0  0  0  0  0  0  0  0  0
  122.7159  124.0087  143.3069 C   0  0  0  0  0  0  0  0  0  0  0  0
  121.7822  123.0486  143.8055 N   0  0  0  0  0  0  0  0  0  0  0  0
  120.4488  122.6919  143.4340 C   0  0  0  0  0  0  0  0  0  0  0  0
  119.9987  121.8011  144.4019 C   0  0  0  0  0  0  0  0  0  0  0  0
  118.7295  121.2549  144.3419 C   0  0  0  0  0  0  0  0  0  0  0  0
  118.1608  120.1318  145.5613 Cl  0  0  0  0  0  0  0  0  0  0  0  0
  117.9307  121.6311  143.2821 C   0  0  0  0  0  0  0  0  0  0  0  0
  118.3807  122.5183  142.3193 C   0  0  0  0  0  0  0  0  0  0  0  0
  117.6055  122.8987  141.2691 F   0  0  0  0  0  0  0  0  0  0  0  0
  119.6455  123.0558  142.3889 C   0  0  0  0  0  0  0  0  0  0  0  0
  122.5993  125.0312  142.2986 N   0  0  0  0  0  0  0  0  0  0  0  0
  121.4822  125.7109  141.7237 C   0  0  1  0  0  0  0  0  0  0  0  0
  121.7300  127.0894  141.2659 C   0  0  0  0  0  0  0  0  0  0  0  0
  122.0206  127.1051  139.8108 C   0  0  0  0  0  0  0  0  0  0  0  0
  119.7410  126.2121  139.9404 S   0  0  1  0  0  0  0  0  0  0  0  0
  120.7184  124.9498  140.7188 C   0  0  2  0  0  0  0  0  0  0  0  0
  119.8039  123.9437  141.2330 C   0  0  0  0  0  0  0  0  0  0  0  0
  118.8236  123.7654  140.4387 O   0  0  0  0  0  0  0  0  0  0  0  0
  118.9815  127.4154  140.1323 C   0  0  0  0  0  0  0  0  0  0  0  0
  117.8917  127.8317  139.3569 F   0  0  0  0  0  0  0  0  0  0  0  0
  1  2  2  0
  2  3  1  0
  3  4  1  0
  4  5  2  0
  5  6  1  0
  6  7  1  0
  6  8  2  0
  8  9  1  0
  9 10  1  0
  9 11  2  0
  2 12  1  0
 12 13  1  0
 13 14  1  6
 14 15  1  0
 15 16  1  0
 16 17  1  0
 17 18  1  1
 18 19  2  0
 16 20  1  1
 20 21  1  0
 11  4  1  0
 18 11  1  0
 17 13  1  0
M  END
>  <docking_score>  (2) 
-6.8150000000000004

$$$$
