
     RDKit          3D

 23 25  0  0  0  0  0  0  0  0999 V2000
  139.1933  114.5644  138.1396 O   0  0  0  0  0  0  0  0  0  0  0  0
  138.8403  115.2436  137.1420 C   0  0  0  0  0  0  0  0  0  0  0  0
  137.9542  116.3527  137.0633 N   0  0  0  0  0  0  0  0  0  0  0  0
  137.6335  117.4116  137.9492 C   0  0  0  0  0  0  0  0  0  0  0  0
  138.5828  118.1877  138.6005 C   0  0  0  0  0  0  0  0  0  0  0  0
  138.2454  119.2135  139.4595 C   0  0  0  0  0  0  0  0  0  0  0  0
  136.9283  119.5040  139.7009 C   0  0  0  0  0  0  0  0  0  0  0  0
  136.6332  120.5224  140.5492 F   0  0  0  0  0  0  0  0  0  0  0  0
  135.9666  118.7591  139.0756 C   0  0  0  0  0  0  0  0  0  0  0  0
  134.2789  119.1602  139.4065 Cl  0  0  0  0  0  0  0  0  0  0  0  0
  136.3081  117.7467  138.2276 C   0  0  0  0  0  0  0  0  0  0  0  0
  137.5929  115.8674  135.7430 C   0  0  1  0  0  0  0  0  0  0  0  0
  137.4354  116.9209  134.7098 C   0  0  0  0  0  0  0  0  0  0  0  0
  136.1771  116.9830  134.1164 C   0  0  0  0  0  0  0  0  0  0  0  0
  135.8944  117.9124  133.1327 C   0  0  0  0  0  0  0  0  0  0  0  0
  136.9167  118.7679  132.7714 C   0  0  0  0  0  0  0  0  0  0  0  0
  138.1589  118.6747  133.3871 C   0  0  0  0  0  0  0  0  0  0  0  0
  138.4086  117.7621  134.3416 N   0  0  0  0  0  0  0  0  0  0  0  0
  139.0295  115.3671  135.6983 C   0  0  2  0  0  0  0  0  0  0  0  0
  139.2769  114.1423  134.8950 C   0  0  0  0  0  0  0  0  0  0  0  0
  140.3459  114.3779  133.8525 C   0  0  0  0  0  0  0  0  0  0  0  0
  139.8782  113.8142  132.6032 N   0  0  0  0  0  0  0  0  0  0  0  0
  138.5278  114.7777  132.0912 Cl  0  0  0  0  0  0  0  0  0  0  0  0
  1  2  2  0
  2  3  1  0
  3  4  1  0
  4  5  2  0
  5  6  1  0
  6  7  2  0
  7  8  1  0
  7  9  1  0
  9 10  1  0
  9 11  2  0
  3 12  1  0
 12 13  1  6
 13 14  2  0
 14 15  1  0
 15 16  2  0
 16 17  1  0
 17 18  2  0
 12 19  1  0
 19 20  1  6
 20 21  1  0
 21 22  1  0
 22 23  1  0
 19  2  1  0
 11  4  1  0
 18 13  1  0
M  END
>  <docking_score>  (1) 
-6.665

$$$$

     RDKit          3D

 23 25  0  0  0  0  0  0  0  0999 V2000
  143.6290  136.8808  137.0248 O   0  0  0  0  0  0  0  0  0  0  0  0
  143.2444  136.3454  138.0957 C   0  0  0  0  0  0  0  0  0  0  0  0
  142.2192  135.3854  138.3164 N   0  0  0  0  0  0  0  0  0  0  0  0
  141.7033  134.3127  137.5468 C   0  0  0  0  0  0  0  0  0  0  0  0
  142.1335  132.9982  137.6685 C   0  0  0  0  0  0  0  0  0  0  0  0
  141.6158  131.9707  136.9068 C   0  0  0  0  0  0  0  0  0  0  0  0
  140.6356  132.2245  135.9837 C   0  0  0  0  0  0  0  0  0  0  0  0
  140.1470  131.1885  135.2544 F   0  0  0  0  0  0  0  0  0  0  0  0
  140.1880  133.5087  135.8378 C   0  0  0  0  0  0  0  0  0  0  0  0
  138.9228  133.8019  134.6411 Cl  0  0  0  0  0  0  0  0  0  0  0  0
  140.7047  134.5191  136.5946 C   0  0  0  0  0  0  0  0  0  0  0  0
  142.0068  136.0267  139.6020 C   0  0  1  0  0  0  0  0  0  0  0  0
  141.7657  135.0972  140.7334 C   0  0  0  0  0  0  0  0  0  0  0  0
  140.4508  135.0506  141.1898 C   0  0  0  0  0  0  0  0  0  0  0  0
  140.0871  134.2330  142.2436 C   0  0  0  0  0  0  0  0  0  0  0  0
  141.0876  133.4720  142.8160 C   0  0  0  0  0  0  0  0  0  0  0  0
  142.3880  133.5461  142.3320 C   0  0  0  0  0  0  0  0  0  0  0  0
  142.7162  134.3491  141.3056 N   0  0  0  0  0  0  0  0  0  0  0  0
  143.4990  136.3178  139.5343 C   0  0  2  0  0  0  0  0  0  0  0  0
  143.9607  137.5576  140.2099 C   0  0  0  0  0  0  0  0  0  0  0  0
  145.2606  137.3282  140.9466 C   0  0  0  0  0  0  0  0  0  0  0  0
  146.3112  138.0012  140.2112 N   0  0  0  0  0  0  0  0  0  0  0  0
  145.7709  139.6283  139.9382 Cl  0  0  0  0  0  0  0  0  0  0  0  0
  1  2  2  0
  2  3  1  0
  3  4  1  0
  4  5  2  0
  5  6  1  0
  6  7  2  0
  7  8  1  0
  7  9  1  0
  9 10  1  0
  9 11  2  0
  3 12  1  0
 12 13  1  1
 13 14  2  0
 14 15  1  0
 15 16  2  0
 16 17  1  0
 17 18  2  0
 12 19  1  0
 19 20  1  1
 20 21  1  0
 21 22  1  0
 22 23  1  0
 19  2  1  0
 11  4  1  0
 18 13  1  0
M  END
>  <docking_score>  (2) 
-6.2599999999999998

$$$$

     RDKit          3D

 23 25  0  0  0  0  0  0  0  0999 V2000
  143.7458  134.9459  133.2324 O   0  0  0  0  0  0  0  0  0  0  0  0
  143.3578  134.5504  134.3613 C   0  0  0  0  0  0  0  0  0  0  0  0
  142.0381  134.3715  134.8590 N   0  0  0  0  0  0  0  0  0  0  0  0
  140.8108  133.9936  134.2594 C   0  0  0  0  0  0  0  0  0  0  0  0
  140.6081  133.9332  132.8871 C   0  0  0  0  0  0  0  0  0  0  0  0
  139.4028  133.5627  132.3269 C   0  0  0  0  0  0  0  0  0  0  0  0
  138.3424  133.2344  133.1301 C   0  0  0  0  0  0  0  0  0  0  0  0
  137.1725  132.8712  132.5443 F   0  0  0  0  0  0  0  0  0  0  0  0
  138.5072  133.2830  134.4871 C   0  0  0  0  0  0  0  0  0  0  0  0
  137.1219  132.8521  135.4941 Cl  0  0  0  0  0  0  0  0  0  0  0  0
  139.7020  133.6501  135.0333 C   0  0  0  0  0  0  0  0  0  0  0  0
  142.5642  134.7477  136.1594 C   0  0  1  0  0  0  0  0  0  0  0  0
  142.0496  133.9480  137.2985 C   0  0  0  0  0  0  0  0  0  0  0  0
  141.4436  134.6857  138.3124 C   0  0  0  0  0  0  0  0  0  0  0  0
  140.9271  134.0684  139.4365 C   0  0  0  0  0  0  0  0  0  0  0  0
  141.0434  132.6937  139.5014 C   0  0  0  0  0  0  0  0  0  0  0  0
  141.6547  131.9928  138.4691 C   0  0  0  0  0  0  0  0  0  0  0  0
  142.1489  132.6165  137.3861 N   0  0  0  0  0  0  0  0  0  0  0  0
  143.8469  134.0974  135.6616 C   0  0  2  0  0  0  0  0  0  0  0  0
  145.1179  134.6561  136.1897 C   0  0  0  0  0  0  0  0  0  0  0  0
  146.2769  133.7211  135.9298 C   0  0  0  0  0  0  0  0  0  0  0  0
  146.8643  134.0867  134.6576 N   0  0  0  0  0  0  0  0  0  0  0  0
  146.5525  132.7747  133.5642 Cl  0  0  0  0  0  0  0  0  0  0  0  0
  1  2  2  0
  2  3  1  0
  3  4  1  0
  4  5  2  0
  5  6  1  0
  6  7  2  0
  7  8  1  0
  7  9  1  0
  9 10  1  0
  9 11  2  0
  3 12  1  0
 12 13  1  1
 13 14  2  0
 14 15  1  0
 15 16  2  0
 16 17  1  0
 17 18  2  0
 12 19  1  0
 19 20  1  1
 20 21  1  0
 21 22  1  0
 22 23  1  0
 19  2  1  0
 11  4  1  0
 18 13  1  0
M  END
>  <docking_score>  (3) 
-6.1349999999999998

$$$$
