
     RDKit          3D

 28 31  0  0  0  0  0  0  0  0999 V2000
  124.5436  123.9612  145.7571 O   0  0  0  0  0  0  0  0  0  0  0  0
  124.4166  124.2324  144.5979 C   0  0  0  0  0  0  0  0  0  0  0  0
  124.9481  125.0841  143.5795 N   0  0  0  0  0  0  0  0  0  0  0  0
  126.1710  125.4856  143.0537 C   0  0  0  0  0  0  0  0  0  0  0  0
  127.2445  124.6057  143.0462 C   0  0  0  0  0  0  0  0  0  0  0  0
  128.4564  124.8808  142.4925 C   0  0  0  0  0  0  0  0  0  0  0  0
  128.6697  126.1114  141.8773 C   0  0  0  0  0  0  0  0  0  0  0  0
  129.8540  126.3913  141.2784 F   0  0  0  0  0  0  0  0  0  0  0  0
  127.6316  127.0125  141.8624 C   0  0  0  0  0  0  0  0  0  0  0  0
  127.9121  128.5756  141.1237 Cl  0  0  0  0  0  0  0  0  0  0  0  0
  126.3852  126.6914  142.4532 C   0  0  0  0  0  0  0  0  0  0  0  0
  123.5202  125.2888  143.2480 C   0  0  1  0  0  0  0  0  0  0  0  0
  123.0919  125.8945  142.0612 C   0  0  0  0  0  0  0  0  0  0  0  0
  123.4015  125.5270  140.7292 C   0  0  0  0  0  0  0  0  0  0  0  0
  122.8882  126.2508  139.7056 C   0  0  0  0  0  0  0  0  0  0  0  0
  122.0693  127.3211  139.8206 C   0  0  0  0  0  0  0  0  0  0  0  0
  121.7527  127.6958  141.1521 C   0  0  0  0  0  0  0  0  0  0  0  0
  122.2540  127.0005  142.1577 N   0  0  0  0  0  0  0  0  0  0  0  0
  123.5000  123.7611  143.4537 C   0  0  2  0  0  0  0  0  0  0  0  0
  122.2540  123.1817  143.9919 C   0  0  0  0  0  0  0  0  0  0  0  0
  121.7033  122.1869  142.9287 C   0  0  2  0  0  0  0  0  0  0  0  0
  120.7388  122.7496  142.1528 N   0  0  0  0  0  0  0  0  0  0  0  0
  120.4601  123.6552  141.0441 N   0  0  0  0  0  0  0  0  0  0  0  0
  120.0342  122.7594  139.9525 C   0  0  0  0  0  0  0  0  0  0  0  0
  121.3313  122.3277  139.2269 C   0  0  0  0  0  0  0  0  0  0  0  0
  121.8519  123.3425  138.4479 F   0  0  0  0  0  0  0  0  0  0  0  0
  119.7095  122.0891  142.9010 C   0  0  0  0  0  0  0  0  0  0  0  0
  120.5463  121.5310  143.6515 C   0  0  0  0  0  0  0  0  0  0  0  0
  1  2  2  0
  2  3  1  0
  3  4  1  0
  4  5  2  0
  5  6  1  0
  6  7  2  0
  7  8  1  0
  7  9  1  0
  9 10  1  0
  9 11  2  0
  3 12  1  0
 12 13  1  6
 13 14  2  0
 14 15  1  0
 15 16  2  0
 16 17  1  0
 17 18  2  0
 12 19  1  0
 19 20  1  1
 21 20  1  1
 21 22  1  0
 22 23  1  0
 23 24  1  0
 24 25  1  0
 25 26  1  0
 22 27  1  0
 27 28  2  0
 19  2  1  0
 11  4  1  0
 18 13  1  0
 28 21  1  0
M  END
>  <docking_score>  (1) 
-7.0170000000000003

$$$$

     RDKit          3D

 28 31  0  0  0  0  0  0  0  0999 V2000
  133.7142  134.4624  136.0437 O   0  0  0  0  0  0  0  0  0  0  0  0
  134.2240  133.4191  136.3353 C   0  0  0  0  0  0  0  0  0  0  0  0
  135.2929  132.5476  135.9571 N   0  0  0  0  0  0  0  0  0  0  0  0
  136.6508  132.5889  135.6612 C   0  0  0  0  0  0  0  0  0  0  0  0
  137.0764  133.0457  134.4214 C   0  0  0  0  0  0  0  0  0  0  0  0
  138.3814  133.1888  134.0647 C   0  0  0  0  0  0  0  0  0  0  0  0
  139.3841  132.8740  134.9779 C   0  0  0  0  0  0  0  0  0  0  0  0
  140.6909  133.0516  134.6615 F   0  0  0  0  0  0  0  0  0  0  0  0
  139.0054  132.4180  136.2183 C   0  0  0  0  0  0  0  0  0  0  0  0
  140.2667  131.9842  137.3535 Cl  0  0  0  0  0  0  0  0  0  0  0  0
  137.6362  132.2783  136.5517 C   0  0  0  0  0  0  0  0  0  0  0  0
  134.2644  131.4966  136.1253 C   0  0  1  0  0  0  0  0  0  0  0  0
  134.5699  130.1317  136.1758 C   0  0  0  0  0  0  0  0  0  0  0  0
  135.3404  129.4418  137.1429 C   0  0  0  0  0  0  0  0  0  0  0  0
  135.5285  128.1068  137.0113 C   0  0  0  0  0  0  0  0  0  0  0  0
  135.0303  127.3270  136.0248 C   0  0  0  0  0  0  0  0  0  0  0  0
  134.2556  128.0099  135.0516 C   0  0  0  0  0  0  0  0  0  0  0  0
  134.0721  129.3132  135.1672 N   0  0  0  0  0  0  0  0  0  0  0  0
  133.9651  132.3268  137.3894 C   0  0  2  0  0  0  0  0  0  0  0  0
  132.5605  132.3633  137.8405 C   0  0  0  0  0  0  0  0  0  0  0  0
  132.5677  132.3184  139.3965 C   0  0  2  0  0  0  0  0  0  0  0  0
  131.4392  132.8587  139.9291 N   0  0  0  0  0  0  0  0  0  0  0  0
  130.0217  132.6571  140.2071 N   0  0  0  0  0  0  0  0  0  0  0  0
  129.3804  133.8783  139.6848 C   0  0  0  0  0  0  0  0  0  0  0  0
  128.9951  133.5622  138.2196 C   0  0  0  0  0  0  0  0  0  0  0  0
  127.6277  133.5875  138.0261 F   0  0  0  0  0  0  0  0  0  0  0  0
  132.1311  134.0762  140.2363 C   0  0  0  0  0  0  0  0  0  0  0  0
  133.2094  133.6385  139.7666 C   0  0  0  0  0  0  0  0  0  0  0  0
  1  2  2  0
  2  3  1  0
  3  4  1  0
  4  5  2  0
  5  6  1  0
  6  7  2  0
  7  8  1  0
  7  9  1  0
  9 10  1  0
  9 11  2  0
  3 12  1  0
 12 13  1  1
 13 14  2  0
 14 15  1  0
 15 16  2  0
 16 17  1  0
 17 18  2  0
 12 19  1  0
 19 20  1  6
 21 20  1  6
 21 22  1  0
 22 23  1  0
 23 24  1  0
 24 25  1  0
 25 26  1  0
 22 27  1  0
 27 28  2  0
 19  2  1  0
 11  4  1  0
 18 13  1  0
 28 21  1  0
M  END
>  <docking_score>  (2) 
-6.2140000000000004

$$$$

     RDKit          3D

 28 31  0  0  0  0  0  0  0  0999 V2000
  141.5142  137.5938  139.1435 O   0  0  0  0  0  0  0  0  0  0  0  0
  142.5367  137.0328  138.8730 C   0  0  0  0  0  0  0  0  0  0  0  0
  143.9559  137.1727  138.9789 N   0  0  0  0  0  0  0  0  0  0  0  0
  144.9305  137.4928  139.9174 C   0  0  0  0  0  0  0  0  0  0  0  0
  145.2829  136.5702  140.8928 C   0  0  0  0  0  0  0  0  0  0  0  0
  146.2705  136.7631  141.8083 C   0  0  0  0  0  0  0  0  0  0  0  0
  147.0028  137.9472  141.7931 C   0  0  0  0  0  0  0  0  0  0  0  0
  148.0220  138.1434  142.6661 F   0  0  0  0  0  0  0  0  0  0  0  0
  146.6858  138.8882  140.8424 C   0  0  0  0  0  0  0  0  0  0  0  0
  147.5801  140.3942  140.8481 Cl  0  0  0  0  0  0  0  0  0  0  0  0
  145.6479  138.6529  139.9082 C   0  0  0  0  0  0  0  0  0  0  0  0
  143.9331  136.7002  137.5764 C   0  0  1  0  0  0  0  0  0  0  0  0
  145.0804  136.2776  136.8953 C   0  0  0  0  0  0  0  0  0  0  0  0
  146.3480  135.9496  137.4343 C   0  0  0  0  0  0  0  0  0  0  0  0
  147.3432  135.5636  136.6004 C   0  0  0  0  0  0  0  0  0  0  0  0
  147.2514  135.4396  135.2565 C   0  0  0  0  0  0  0  0  0  0  0  0
  145.9840  135.7651  134.7077 C   0  0  0  0  0  0  0  0  0  0  0  0
  145.0088  136.1495  135.5121 N   0  0  0  0  0  0  0  0  0  0  0  0
  142.9137  135.7118  138.1770 C   0  0  2  0  0  0  0  0  0  0  0  0
  141.8237  135.2634  137.2889 C   0  0  0  0  0  0  0  0  0  0  0  0
  141.7594  133.7105  137.3748 C   0  0  2  0  0  0  0  0  0  0  0  0
  140.7331  133.1998  136.6435 N   0  0  0  0  0  0  0  0  0  0  0  0
  140.2542  132.8679  135.3064 N   0  0  0  0  0  0  0  0  0  0  0  0
  139.5093  134.0700  134.8877 C   0  0  0  0  0  0  0  0  0  0  0  0
  138.1753  133.5575  134.2936 C   0  0  0  0  0  0  0  0  0  0  0  0
  138.2727  133.3095  132.9383 F   0  0  0  0  0  0  0  0  0  0  0  0
  139.9403  133.0221  137.8248 C   0  0  0  0  0  0  0  0  0  0  0  0
  140.8484  133.4782  138.5611 C   0  0  0  0  0  0  0  0  0  0  0  0
  1  2  2  0
  2  3  1  0
  3  4  1  0
  4  5  2  0
  5  6  1  0
  6  7  2  0
  7  8  1  0
  7  9  1  0
  9 10  1  0
  9 11  2  0
  3 12  1  0
 12 13  1  1
 13 14  2  0
 14 15  1  0
 15 16  2  0
 16 17  1  0
 17 18  2  0
 12 19  1  0
 19 20  1  6
 21 20  1  6
 21 22  1  0
 22 23  1  0
 23 24  1  0
 24 25  1  0
 25 26  1  0
 22 27  1  0
 27 28  2  0
 19  2  1  0
 11  4  1  0
 18 13  1  0
 28 21  1  0
M  END
>  <docking_score>  (3) 
-6.1909999999999998

$$$$
