
     RDKit          3D

 29 32  0  0  0  0  0  0  0  0999 V2000
  134.1045  123.9733  138.9658 O   0  0  0  0  0  0  0  0  0  0  0  0
  134.8407  124.1246  139.9604 C   0  0  0  0  0  0  0  0  0  0  0  0
  135.3210  122.8676  140.5219 N   0  0  0  0  0  0  0  0  0  0  0  0
  134.9491  121.6199  139.9441 C   0  0  2  0  0  0  0  0  0  0  0  0
  133.9872  120.6770  140.5128 C   0  0  0  0  0  0  0  0  0  0  0  0
  135.4033  120.3160  140.5733 C   0  0  1  0  0  0  0  0  0  0  0  0
  136.0767  119.4126  139.6370 C   0  0  0  0  0  0  0  0  0  0  0  0
  135.3689  118.6031  138.7762 C   0  0  0  0  0  0  0  0  0  0  0  0
  136.0405  117.7683  137.9116 C   0  0  0  0  0  0  0  0  0  0  0  0
  137.4189  117.7360  137.9004 C   0  0  0  0  0  0  0  0  0  0  0  0
  138.1385  118.5321  138.7472 C   0  0  0  0  0  0  0  0  0  0  0  0
  137.4592  119.3651  139.6097 C   0  0  0  0  0  0  0  0  0  0  0  0
  135.2045  125.3437  140.5261 N   0  0  0  0  0  0  0  0  0  0  0  0
  134.8564  126.6327  140.1378 C   0  0  0  0  0  0  0  0  0  0  0  0
  134.1270  126.7173  138.8531 C   0  0  0  0  0  0  0  0  0  0  0  0
  134.8887  127.3745  137.7269 C   0  0  2  0  0  0  0  0  0  0  0  0
  133.9769  128.4966  137.2480 C   0  0  0  0  0  0  0  0  0  0  0  0
  134.2596  129.8039  137.1365 N   0  0  0  0  0  0  0  0  0  0  0  0
  133.1873  130.4704  136.6758 C   0  0  0  0  0  0  0  0  0  0  0  0
  133.0948  131.9014  136.4191 C   0  0  0  0  0  0  0  0  0  0  0  0
  132.0855  132.4370  135.6489 C   0  0  0  0  0  0  0  0  0  0  0  0
  131.9921  133.8098  135.4001 C   0  0  0  0  0  0  0  0  0  0  0  0
  132.9358  134.6580  135.9395 C   0  0  0  0  0  0  0  0  0  0  0  0
  133.9330  134.0861  136.7063 C   0  0  0  0  0  0  0  0  0  0  0  0
  133.9940  132.7610  136.9262 N   0  0  0  0  0  0  0  0  0  0  0  0
  132.2418  129.5306  136.5096 N   0  0  0  0  0  0  0  0  0  0  0  0
  132.7336  128.3614  136.8565 O   0  0  0  0  0  0  0  0  0  0  0  0
  134.8009  126.3407  136.5685 C   0  0  0  0  0  0  0  0  0  0  0  0
  134.9346  126.9680  135.2254 C   0  0  0  0  0  0  0  0  0  0  0  0
  1  2  2  0
  2  3  1  0
  4  3  1  1
  4  5  1  0
  5  6  1  0
  6  7  1  6
  7  8  2  0
  8  9  1  0
  9 10  2  0
 10 11  1  0
 11 12  2  0
  2 13  1  0
 13 14  1  0
 14 15  1  0
 16 15  1  1
 16 17  1  0
 17 18  2  0
 18 19  1  0
 19 20  1  0
 20 21  2  0
 21 22  1  0
 22 23  2  0
 23 24  1  0
 24 25  2  0
 19 26  2  0
 26 27  1  0
 16 28  1  0
 28 29  1  0
  6  4  1  0
 12  7  1  0
 27 17  1  0
 25 20  1  0
M  END
>  <docking_score>  (1) 
-8.1829999999999998

$$$$

     RDKit          3D

 29 32  0  0  0  0  0  0  0  0999 V2000
  136.8448  124.9964  142.3004 O   0  0  0  0  0  0  0  0  0  0  0  0
  136.1353  125.9837  142.0246 C   0  0  0  0  0  0  0  0  0  0  0  0
  135.5410  125.9165  140.6949 N   0  0  0  0  0  0  0  0  0  0  0  0
  135.7859  124.8033  139.8405 C   0  0  2  0  0  0  0  0  0  0  0  0
  135.4841  124.7512  138.4109 C   0  0  0  0  0  0  0  0  0  0  0  0
  134.6317  123.9736  139.3098 C   0  0  1  0  0  0  0  0  0  0  0  0
  134.7731  122.5374  139.5621 C   0  0  0  0  0  0  0  0  0  0  0  0
  135.9429  121.8653  139.2845 C   0  0  0  0  0  0  0  0  0  0  0  0
  136.0343  120.5149  139.5367 C   0  0  0  0  0  0  0  0  0  0  0  0
  134.9622  119.8284  140.0661 C   0  0  0  0  0  0  0  0  0  0  0  0
  133.7930  120.4783  140.3482 C   0  0  0  0  0  0  0  0  0  0  0  0
  133.7090  121.8300  140.0930 C   0  0  0  0  0  0  0  0  0  0  0  0
  135.8955  127.0724  142.8589 N   0  0  0  0  0  0  0  0  0  0  0  0
  136.3629  127.3144  144.1459 C   0  0  0  0  0  0  0  0  0  0  0  0
  137.8335  127.4329  144.2592 C   0  0  0  0  0  0  0  0  0  0  0  0
  138.3288  128.7481  144.8117 C   0  0  2  0  0  0  0  0  0  0  0  0
  138.5423  129.6257  143.5853 C   0  0  0  0  0  0  0  0  0  0  0  0
  139.1484  130.8213  143.5169 N   0  0  0  0  0  0  0  0  0  0  0  0
  139.1342  131.2742  142.2516 C   0  0  0  0  0  0  0  0  0  0  0  0
  139.6919  132.5307  141.7696 C   0  0  0  0  0  0  0  0  0  0  0  0
  139.7769  132.8187  140.4247 C   0  0  0  0  0  0  0  0  0  0  0  0
  140.3107  134.0235  139.9571 C   0  0  0  0  0  0  0  0  0  0  0  0
  140.7674  134.9553  140.8648 C   0  0  0  0  0  0  0  0  0  0  0  0
  140.6664  134.6328  142.2047 C   0  0  0  0  0  0  0  0  0  0  0  0
  140.1474  133.4644  142.6211 N   0  0  0  0  0  0  0  0  0  0  0  0
  138.5011  130.3193  141.5500 N   0  0  0  0  0  0  0  0  0  0  0  0
  138.1569  129.3459  142.3645 O   0  0  0  0  0  0  0  0  0  0  0  0
  139.7819  128.4337  145.2679 C   0  0  0  0  0  0  0  0  0  0  0  0
  140.6074  127.8308  144.1862 C   0  0  0  0  0  0  0  0  0  0  0  0
  1  2  2  0
  2  3  1  0
  4  3  1  1
  4  5  1  0
  5  6  1  0
  6  7  1  6
  7  8  2  0
  8  9  1  0
  9 10  2  0
 10 11  1  0
 11 12  2  0
  2 13  1  0
 13 14  1  0
 14 15  1  0
 16 15  1  6
 16 17  1  0
 17 18  2  0
 18 19  1  0
 19 20  1  0
 20 21  2  0
 21 22  1  0
 22 23  2  0
 23 24  1  0
 24 25  2  0
 19 26  2  0
 26 27  1  0
 16 28  1  0
 28 29  1  0
  6  4  1  0
 12  7  1  0
 27 17  1  0
 25 20  1  0
M  END
>  <docking_score>  (2) 
-7.9119999999999999

$$$$

     RDKit          3D

 29 32  0  0  0  0  0  0  0  0999 V2000
  129.6384  138.8945  143.5694 O   0  0  0  0  0  0  0  0  0  0  0  0
  129.2783  137.7016  143.6094 C   0  0  0  0  0  0  0  0  0  0  0  0
  128.2197  137.4484  144.5795 N   0  0  0  0  0  0  0  0  0  0  0  0
  127.6898  138.5045  145.3752 C   0  0  2  0  0  0  0  0  0  0  0  0
  126.6407  138.3603  146.3831 C   0  0  0  0  0  0  0  0  0  0  0  0
  126.2851  139.0222  145.1283 C   0  0  1  0  0  0  0  0  0  0  0  0
  126.2164  140.4733  144.9384 C   0  0  0  0  0  0  0  0  0  0  0  0
  126.7874  141.0883  143.8463 C   0  0  0  0  0  0  0  0  0  0  0  0
  126.7000  142.4551  143.7055 C   0  0  0  0  0  0  0  0  0  0  0  0
  126.0441  143.2148  144.6508 C   0  0  0  0  0  0  0  0  0  0  0  0
  125.4710  142.6222  145.7414 C   0  0  0  0  0  0  0  0  0  0  0  0
  125.5627  141.2536  145.8755 C   0  0  0  0  0  0  0  0  0  0  0  0
  129.7956  136.6686  142.8323 N   0  0  0  0  0  0  0  0  0  0  0  0
  130.7918  136.7106  141.8632 C   0  0  0  0  0  0  0  0  0  0  0  0
  130.5074  135.9168  140.6472 C   0  0  0  0  0  0  0  0  0  0  0  0
  130.3516  136.7222  139.3793 C   0  0  2  0  0  0  0  0  0  0  0  0
  129.7488  138.0449  139.8343 C   0  0  0  0  0  0  0  0  0  0  0  0
  130.3752  139.2139  140.0408 N   0  0  0  0  0  0  0  0  0  0  0  0
  129.4929  140.1463  140.4388 C   0  0  0  0  0  0  0  0  0  0  0  0
  129.7809  141.5375  140.7606 C   0  0  0  0  0  0  0  0  0  0  0  0
  129.6213  142.5451  139.8341 C   0  0  0  0  0  0  0  0  0  0  0  0
  129.8958  143.8819  140.1382 C   0  0  0  0  0  0  0  0  0  0  0  0
  130.3400  144.2077  141.4022 C   0  0  0  0  0  0  0  0  0  0  0  0
  130.4883  143.1722  142.3050 C   0  0  0  0  0  0  0  0  0  0  0  0
  130.2153  141.8963  141.9800 N   0  0  0  0  0  0  0  0  0  0  0  0
  128.3094  139.5112  140.4690 N   0  0  0  0  0  0  0  0  0  0  0  0
  128.4848  138.2598  140.1052 O   0  0  0  0  0  0  0  0  0  0  0  0
  129.1632  136.0351  138.6485 C   0  0  0  0  0  0  0  0  0  0  0  0
  128.9895  134.6109  139.0444 C   0  0  0  0  0  0  0  0  0  0  0  0
  1  2  2  0
  2  3  1  0
  4  3  1  6
  4  5  1  0
  5  6  1  0
  6  7  1  1
  7  8  2  0
  8  9  1  0
  9 10  2  0
 10 11  1  0
 11 12  2  0
  2 13  1  0
 13 14  1  0
 14 15  1  0
 16 15  1  1
 16 17  1  0
 17 18  2  0
 18 19  1  0
 19 20  1  0
 20 21  2  0
 21 22  1  0
 22 23  2  0
 23 24  1  0
 24 25  2  0
 19 26  2  0
 26 27  1  0
 16 28  1  0
 28 29  1  0
  6  4  1  0
 12  7  1  0
 27 17  1  0
 25 20  1  0
M  END
>  <docking_score>  (3) 
-7.8620000000000001

$$$$
