
     RDKit          3D

 21 22  0  0  0  0  0  0  0  0999 V2000
  119.3373  126.1730  139.8505 O   0  0  0  0  0  0  0  0  0  0  0  0
  120.5163  125.7210  140.0833 C   0  0  0  0  0  0  0  0  0  0  0  0
  121.3273  126.4747  140.9094 N   0  0  0  0  0  0  0  0  0  0  0  0
  122.5238  126.1613  141.5951 C   0  0  0  0  0  0  0  0  0  0  0  0
  123.7304  126.7812  141.2253 C   0  0  0  0  0  0  0  0  0  0  0  0
  124.9285  126.5529  141.8231 C   0  0  0  0  0  0  0  0  0  0  0  0
  126.3363  127.4122  141.2360 Cl  0  0  0  0  0  0  0  0  0  0  0  0
  125.0154  125.6680  142.8594 C   0  0  0  0  0  0  0  0  0  0  0  0
  123.8578  125.0360  143.2570 C   0  0  0  0  0  0  0  0  0  0  0  0
  124.0168  123.9000  144.6042 Cl  0  0  0  0  0  0  0  0  0  0  0  0
  122.6174  125.2686  142.6425 C   0  0  0  0  0  0  0  0  0  0  0  0
  120.8042  124.4927  139.4407 N   0  0  0  0  0  0  0  0  0  0  0  0
  121.6954  123.4892  139.9547 C   0  0  0  0  0  0  0  0  0  0  0  0
  120.8379  122.3643  140.5095 C   0  0  0  0  0  0  0  0  0  0  0  0
  119.3644  122.6443  140.3244 C   0  0  0  0  0  0  0  0  0  0  0  0
  119.2987  123.1626  142.5454 S   0  0  2  0  0  0  0  0  0  0  0  0
  120.2282  124.2154  142.4702 C   0  0  0  0  0  0  0  0  0  0  0  0
  121.4849  124.5229  143.1901 C   0  0  0  0  0  0  0  0  0  0  0  0
  121.5734  124.1014  144.3725 O   0  0  0  0  0  0  0  0  0  0  0  0
  119.0174  121.5671  143.1543 C   0  0  0  0  0  0  0  0  0  0  0  0
  120.3465  121.1836  144.2975 Cl  0  0  0  0  0  0  0  0  0  0  0  0
  1  2  2  0
  2  3  1  0
  3  4  1  0
  4  5  2  0
  5  6  1  0
  6  7  1  0
  6  8  2  0
  8  9  1  0
  9 10  1  0
  9 11  2  0
  2 12  1  0
 12 13  1  0
 13 14  1  0
 14 15  1  0
 15 16  1  0
 16 17  1  0
 17 18  1  0
 18 19  2  0
 16 20  1  1
 20 21  1  0
 11  4  1  0
 18 11  1  0
M  END
>  <docking_score>  (1) 
-6.6829999999999998

$$$$

     RDKit          3D

 21 22  0  0  0  0  0  0  0  0999 V2000
  139.8977  113.0431  135.2810 O   0  0  0  0  0  0  0  0  0  0  0  0
  138.8405  113.7715  135.2704 C   0  0  0  0  0  0  0  0  0  0  0  0
  138.9876  115.0991  135.6227 N   0  0  0  0  0  0  0  0  0  0  0  0
  138.1416  116.2189  135.4481 C   0  0  0  0  0  0  0  0  0  0  0  0
  137.5629  116.8452  136.5660 C   0  0  0  0  0  0  0  0  0  0  0  0
  136.7433  117.9267  136.5046 C   0  0  0  0  0  0  0  0  0  0  0  0
  136.1076  118.5835  137.9976 Cl  0  0  0  0  0  0  0  0  0  0  0  0
  136.4318  118.4779  135.2947 C   0  0  0  0  0  0  0  0  0  0  0  0
  136.9762  117.8973  134.1704 C   0  0  0  0  0  0  0  0  0  0  0  0
  136.5476  118.6454  132.6253 Cl  0  0  0  0  0  0  0  0  0  0  0  0
  137.8237  116.7799  134.2287 C   0  0  0  0  0  0  0  0  0  0  0  0
  137.6641  113.0815  134.8903 N   0  0  0  0  0  0  0  0  0  0  0  0
  136.5471  113.6797  134.2122 C   0  0  0  0  0  0  0  0  0  0  0  0
  136.6124  113.2409  132.7590 C   0  0  0  0  0  0  0  0  0  0  0  0
  137.7850  112.3214  132.5074 C   0  0  0  0  0  0  0  0  0  0  0  0
  138.8269  114.1010  131.5313 S   0  0  2  0  0  0  0  0  0  0  0  0
  138.8085  114.9181  132.6759 C   0  0  0  0  0  0  0  0  0  0  0  0
  138.3233  116.2909  132.9442 C   0  0  0  0  0  0  0  0  0  0  0  0
  138.3480  117.0953  131.9769 O   0  0  0  0  0  0  0  0  0  0  0  0
  138.1994  113.8964  129.9313 C   0  0  0  0  0  0  0  0  0  0  0  0
  136.8513  115.0631  129.7270 Cl  0  0  0  0  0  0  0  0  0  0  0  0
  1  2  2  0
  2  3  1  0
  3  4  1  0
  4  5  2  0
  5  6  1  0
  6  7  1  0
  6  8  2  0
  8  9  1  0
  9 10  1  0
  9 11  2  0
  2 12  1  0
 12 13  1  0
 13 14  1  0
 14 15  1  0
 15 16  1  0
 16 17  1  0
 17 18  1  0
 18 19  2  0
 16 20  1  6
 20 21  1  0
 11  4  1  0
 18 11  1  0
M  END
>  <docking_score>  (2) 
-6.3840000000000003

$$$$
