
     RDKit          3D

 30 34  0  0  0  0  0  0  0  0999 V2000
  133.0598  127.1640  137.7130 O   0  0  0  0  0  0  0  0  0  0  0  0
  134.1212  127.6311  138.1663 C   0  0  0  0  0  0  0  0  0  0  0  0
  134.5352  128.9425  137.8202 N   0  0  0  0  0  0  0  0  0  0  0  0
  133.7289  129.7571  136.9322 C   0  0  2  0  0  0  0  0  0  0  0  0
  134.3240  130.2122  135.6540 C   0  0  0  0  0  0  0  0  0  0  0  0
  134.1325  131.2121  136.7800 C   0  0  1  0  0  0  0  0  0  0  0  0
  133.0083  132.1766  136.6275 C   0  0  0  0  0  0  0  0  0  0  0  0
  131.7802  131.9546  137.2132 C   0  0  0  0  0  0  0  0  0  0  0  0
  130.7746  132.8764  137.0431 C   0  0  0  0  0  0  0  0  0  0  0  0
  130.9234  134.0335  136.3069 C   0  0  0  0  0  0  0  0  0  0  0  0
  132.1534  134.2458  135.7261 C   0  0  0  0  0  0  0  0  0  0  0  0
  133.1651  133.3336  135.8884 C   0  0  0  0  0  0  0  0  0  0  0  0
  134.9037  126.8153  139.0380 N   0  0  0  0  0  0  0  0  0  0  0  0
  134.4367  125.4688  139.3658 C   0  0  2  0  0  0  0  0  0  0  0  0
  133.1550  125.5072  140.0525 C   0  0  1  0  0  0  0  0  0  0  0  0
  132.2921  124.3574  140.1761 C   0  0  1  0  0  0  0  0  0  0  0  0
  132.7142  123.0159  139.9782 C   0  0  0  0  0  0  0  0  0  0  0  0
  133.6845  122.1889  139.8622 N   0  0  0  0  0  0  0  0  0  0  0  0
  135.0943  122.3860  139.9034 C   0  0  0  0  0  0  0  0  0  0  0  0
  135.7741  121.1061  139.8300 C   0  0  0  0  0  0  0  0  0  0  0  0
  135.0450  120.0056  139.4658 C   0  0  0  0  0  0  0  0  0  0  0  0
  135.6427  118.7563  139.3799 C   0  0  0  0  0  0  0  0  0  0  0  0
  136.9809  118.6334  139.6652 C   0  0  0  0  0  0  0  0  0  0  0  0
  137.6873  119.7541  140.0284 C   0  0  0  0  0  0  0  0  0  0  0  0
  137.0719  120.9678  140.1039 N   0  0  0  0  0  0  0  0  0  0  0  0
  135.8532  123.4322  139.9850 N   0  0  0  0  0  0  0  0  0  0  0  0
  135.4958  124.7844  140.0629 O   0  0  0  0  0  0  0  0  0  0  0  0
  131.9891  124.7832  141.6156 C   0  0  0  0  0  0  0  0  0  0  0  0
  133.0525  125.8824  141.4906 C   0  0  1  0  0  0  0  0  0  0  0  0
  134.5032  125.6597  142.5144 S   0  0  0  0  0  0  0  0  0  0  0  0
  1  2  2  0
  2  3  1  0
  4  3  1  1
  4  5  1  0
  5  6  1  0
  6  7  1  6
  7  8  2  0
  8  9  1  0
  9 10  2  0
 10 11  1  0
 11 12  2  0
  2 13  1  0
 14 13  1  1
 15 14  1  1
 15 16  1  0
 16 17  1  0
 17 18  2  3
 18 19  1  0
 19 20  1  0
 20 21  2  0
 21 22  1  0
 22 23  2  0
 23 24  1  0
 24 25  2  0
 19 26  2  3
 26 27  1  0
 16 28  1  1
 28 29  1  0
 29 30  1  1
  6  4  1  0
 12  7  1  0
 27 14  1  0
 29 15  1  0
 25 20  1  0
M  END
>  <docking_score>  (1) 
-8.2959999999999994

$$$$

     RDKit          3D

 30 34  0  0  0  0  0  0  0  0999 V2000
  134.9266  130.5345  136.3590 O   0  0  0  0  0  0  0  0  0  0  0  0
  135.0433  131.4018  137.2446 C   0  0  0  0  0  0  0  0  0  0  0  0
  136.2212  132.1868  137.3312 N   0  0  0  0  0  0  0  0  0  0  0  0
  137.3066  131.9892  136.3905 C   0  0  2  0  0  0  0  0  0  0  0  0
  138.6835  131.8466  136.9186 C   0  0  0  0  0  0  0  0  0  0  0  0
  138.2864  133.1358  136.2226 C   0  0  1  0  0  0  0  0  0  0  0  0
  138.8105  133.3343  134.8430 C   0  0  0  0  0  0  0  0  0  0  0  0
  140.0838  133.8106  134.6143 C   0  0  0  0  0  0  0  0  0  0  0  0
  140.5210  133.9754  133.3214 C   0  0  0  0  0  0  0  0  0  0  0  0
  139.7467  133.6869  132.2167 C   0  0  0  0  0  0  0  0  0  0  0  0
  138.4769  133.2119  132.4557 C   0  0  0  0  0  0  0  0  0  0  0  0
  138.0288  133.0430  133.7412 C   0  0  0  0  0  0  0  0  0  0  0  0
  133.9660  131.5824  138.1635 N   0  0  0  0  0  0  0  0  0  0  0  0
  132.7713  130.7486  138.0355 C   0  0  2  0  0  0  0  0  0  0  0  0
  131.7285  131.4321  137.2863 C   0  0  1  0  0  0  0  0  0  0  0  0
  130.6017  130.7478  136.6998 C   0  0  1  0  0  0  0  0  0  0  0  0
  130.1823  129.4407  137.0636 C   0  0  0  0  0  0  0  0  0  0  0  0
  130.2473  128.4727  137.8989 N   0  0  0  0  0  0  0  0  0  0  0  0
  130.9800  128.3284  139.1115 C   0  0  0  0  0  0  0  0  0  0  0  0
  130.6281  127.0761  139.7548 C   0  0  0  0  0  0  0  0  0  0  0  0
  130.2699  127.1052  141.0763 C   0  0  0  0  0  0  0  0  0  0  0  0
  129.9246  125.9382  141.7427 C   0  0  0  0  0  0  0  0  0  0  0  0
  129.9453  124.7463  141.0600 C   0  0  0  0  0  0  0  0  0  0  0  0
  130.3091  124.7468  139.7354 C   0  0  0  0  0  0  0  0  0  0  0  0
  130.6432  125.9099  139.1082 N   0  0  0  0  0  0  0  0  0  0  0  0
  131.8595  129.0569  139.7219 N   0  0  0  0  0  0  0  0  0  0  0  0
  132.3975  130.2961  139.3512 O   0  0  0  0  0  0  0  0  0  0  0  0
  129.7093  131.9105  137.1434 C   0  0  0  0  0  0  0  0  0  0  0  0
  130.9012  132.5057  137.9047 C   0  0  1  0  0  0  0  0  0  0  0  0
  130.7415  132.5111  139.6871 S   0  0  0  0  0  0  0  0  0  0  0  0
  1  2  2  0
  2  3  1  0
  4  3  1  1
  4  5  1  0
  5  6  1  0
  6  7  1  6
  7  8  2  0
  8  9  1  0
  9 10  2  0
 10 11  1  0
 11 12  2  0
  2 13  1  0
 14 13  1  1
 15 14  1  1
 15 16  1  0
 16 17  1  0
 17 18  2  3
 18 19  1  0
 19 20  1  0
 20 21  2  0
 21 22  1  0
 22 23  2  0
 23 24  1  0
 24 25  2  0
 19 26  2  3
 26 27  1  0
 16 28  1  1
 28 29  1  0
 29 30  1  1
  6  4  1  0
 12  7  1  0
 27 14  1  0
 29 15  1  0
 25 20  1  0
M  END
>  <docking_score>  (2) 
-8.2460000000000004

$$$$

     RDKit          3D

 30 34  0  0  0  0  0  0  0  0999 V2000
  132.9435  126.9719  140.1395 O   0  0  0  0  0  0  0  0  0  0  0  0
  132.1525  126.3239  140.8497 C   0  0  0  0  0  0  0  0  0  0  0  0
  132.2848  124.9174  140.9740 N   0  0  0  0  0  0  0  0  0  0  0  0
  133.3423  124.2143  140.2744 C   0  0  2  0  0  0  0  0  0  0  0  0
  133.0574  123.6671  138.9274 C   0  0  0  0  0  0  0  0  0  0  0  0
  133.1744  122.7157  140.1044 C   0  0  1  0  0  0  0  0  0  0  0  0
  134.4279  121.9164  140.1902 C   0  0  0  0  0  0  0  0  0  0  0  0
  135.6435  122.5047  140.4672 C   0  0  0  0  0  0  0  0  0  0  0  0
  136.7719  121.7226  140.5364 C   0  0  0  0  0  0  0  0  0  0  0  0
  136.7609  120.3569  140.3416 C   0  0  0  0  0  0  0  0  0  0  0  0
  135.5422  119.7792  140.0656 C   0  0  0  0  0  0  0  0  0  0  0  0
  134.4088  120.5487  139.9938 C   0  0  0  0  0  0  0  0  0  0  0  0
  131.1163  127.0313  141.5305 N   0  0  0  0  0  0  0  0  0  0  0  0
  131.0188  128.4818  141.3712 C   0  0  2  0  0  0  0  0  0  0  0  0
  130.3921  129.0990  142.5298 C   0  0  1  0  0  0  0  0  0  0  0  0
  130.4838  130.5099  142.8175 C   0  0  1  0  0  0  0  0  0  0  0  0
  130.8650  131.4962  141.8695 C   0  0  0  0  0  0  0  0  0  0  0  0
  131.0624  131.8039  140.6426 N   0  0  0  0  0  0  0  0  0  0  0  0
  130.9288  131.0366  139.4504 C   0  0  0  0  0  0  0  0  0  0  0  0
  131.1662  131.8782  138.2923 C   0  0  0  0  0  0  0  0  0  0  0  0
  131.4140  131.2708  137.0902 C   0  0  0  0  0  0  0  0  0  0  0  0
  131.6487  132.0257  135.9499 C   0  0  0  0  0  0  0  0  0  0  0  0
  131.6297  133.3965  136.0389 C   0  0  0  0  0  0  0  0  0  0  0  0
  131.3790  133.9786  137.2576 C   0  0  0  0  0  0  0  0  0  0  0  0
  131.1522  133.2100  138.3600 N   0  0  0  0  0  0  0  0  0  0  0  0
  130.6550  129.7944  139.2074 N   0  0  0  0  0  0  0  0  0  0  0  0
  130.3878  128.7522  140.1046 O   0  0  0  0  0  0  0  0  0  0  0  0
  129.0112  130.4845  143.2369 C   0  0  0  0  0  0  0  0  0  0  0  0
  128.9196  129.0335  142.7464 C   0  0  1  0  0  0  0  0  0  0  0  0
  127.8781  128.7773  141.3138 S   0  0  0  0  0  0  0  0  0  0  0  0
  1  2  2  0
  2  3  1  0
  4  3  1  1
  4  5  1  0
  5  6  1  0
  6  7  1  6
  7  8  2  0
  8  9  1  0
  9 10  2  0
 10 11  1  0
 11 12  2  0
  2 13  1  0
 14 13  1  1
 15 14  1  6
 15 16  1  0
 16 17  1  0
 17 18  2  3
 18 19  1  0
 19 20  1  0
 20 21  2  0
 21 22  1  0
 22 23  2  0
 23 24  1  0
 24 25  2  0
 19 26  2  3
 26 27  1  0
 16 28  1  6
 28 29  1  0
 29 30  1  6
  6  4  1  0
 12  7  1  0
 27 14  1  0
 29 15  1  0
 25 20  1  0
M  END
>  <docking_score>  (3) 
-7.9279999999999999

$$$$
