
     RDKit          3D

 29 33  0  0  0  0  0  0  0  0999 V2000
  133.5588  120.6481  140.7225 O   0  0  0  0  0  0  0  0  0  0  0  0
  134.1173  121.5542  140.0044 C   0  0  0  0  0  0  0  0  0  0  0  0
  135.3174  121.1997  139.3293 N   0  0  0  0  0  0  0  0  0  0  0  0
  135.9594  119.9181  139.3811 C   0  0  2  0  0  0  0  0  0  0  0  0
  137.2697  119.6675  139.9667 C   0  0  0  0  0  0  0  0  0  0  0  0
  137.2222  119.7797  138.4844 C   0  0  1  0  0  0  0  0  0  0  0  0
  137.1388  118.6143  137.5875 C   0  0  0  0  0  0  0  0  0  0  0  0
  136.2839  118.5724  136.4994 C   0  0  0  0  0  0  0  0  0  0  0  0
  136.2555  117.4452  135.7187 C   0  0  0  0  0  0  0  0  0  0  0  0
  137.0592  116.3406  135.9845 C   0  0  0  0  0  0  0  0  0  0  0  0
  137.9143  116.3899  137.0772 C   0  0  0  0  0  0  0  0  0  0  0  0
  137.9402  117.5188  137.8563 C   0  0  0  0  0  0  0  0  0  0  0  0
  133.5432  122.8414  139.9111 N   0  0  0  0  0  0  0  0  0  0  0  0
  132.1234  123.0244  139.8092 C   0  0  0  0  0  0  0  0  0  0  0  0
  131.6151  123.9945  140.8559 C   0  0  0  0  0  0  0  0  0  0  0  0
  132.4658  125.2038  140.9404 C   0  0  0  0  0  0  0  0  0  0  0  0
  132.1653  126.2899  139.9968 C   0  0  0  0  0  0  0  0  0  0  0  0
  133.0286  127.0854  139.3296 N   0  0  0  0  0  0  0  0  0  0  0  0
  132.3839  127.9697  138.5557 C   0  0  0  0  0  0  0  0  0  0  0  0
  132.9439  128.9943  137.6905 C   0  0  0  0  0  0  0  0  0  0  0  0
  132.2961  130.1588  137.3428 C   0  0  0  0  0  0  0  0  0  0  0  0
  132.9058  131.0824  136.5110 C   0  0  0  0  0  0  0  0  0  0  0  0
  134.1518  130.9022  136.0012 C   0  0  0  0  0  0  0  0  0  0  0  0
  134.7856  129.7034  136.3761 C   0  0  0  0  0  0  0  0  0  0  0  0
  134.1946  128.8105  137.1786 N   0  0  0  0  0  0  0  0  0  0  0  0
  131.0656  127.6895  138.7697 N   0  0  0  0  0  0  0  0  0  0  0  0
  130.9593  126.7087  139.6115 O   0  0  0  0  0  0  0  0  0  0  0  0
  133.9042  124.9003  141.0688 C   0  0  0  0  0  0  0  0  0  0  0  0
  134.3608  124.0306  139.9240 C   0  0  0  0  0  0  0  0  0  0  0  0
  1  2  2  0
  2  3  1  0
  4  3  1  1
  4  5  1  0
  5  6  1  0
  6  7  1  6
  7  8  2  0
  8  9  1  0
  9 10  2  0
 10 11  1  0
 11 12  2  0
  2 13  1  0
 13 14  1  0
 14 15  1  0
 15 16  1  0
 16 17  1  0
 17 18  2  0
 18 19  1  0
 19 20  1  0
 20 21  2  0
 21 22  1  0
 22 23  2  0
 23 24  1  0
 24 25  2  0
 19 26  2  0
 26 27  1  0
 16 28  1  0
 28 29  1  0
  6  4  1  0
 12  7  1  0
 29 13  1  0
 27 17  1  0
 25 20  1  0
M  END
>  <docking_score>  (1) 
-8.5869999999999997

$$$$

     RDKit          3D

 29 33  0  0  0  0  0  0  0  0999 V2000
  126.6524  127.0248  142.2875 O   0  0  0  0  0  0  0  0  0  0  0  0
  127.2173  125.8948  142.5166 C   0  0  0  0  0  0  0  0  0  0  0  0
  126.4568  124.9188  143.2171 N   0  0  0  0  0  0  0  0  0  0  0  0
  125.1136  125.0866  143.6912 C   0  0  2  0  0  0  0  0  0  0  0  0
  124.7510  125.4137  145.0639 C   0  0  0  0  0  0  0  0  0  0  0  0
  124.6210  123.9849  144.6719 C   0  0  1  0  0  0  0  0  0  0  0  0
  123.3525  123.3795  144.2315 C   0  0  0  0  0  0  0  0  0  0  0  0
  123.1843  122.0108  144.1088 C   0  0  0  0  0  0  0  0  0  0  0  0
  121.9754  121.5250  143.6804 C   0  0  0  0  0  0  0  0  0  0  0  0
  120.9106  122.3636  143.3650 C   0  0  0  0  0  0  0  0  0  0  0  0
  121.0865  123.7351  143.4908 C   0  0  0  0  0  0  0  0  0  0  0  0
  122.2969  124.2179  143.9193 C   0  0  0  0  0  0  0  0  0  0  0  0
  128.5411  125.6610  142.0828 N   0  0  0  0  0  0  0  0  0  0  0  0
  129.3968  126.7367  141.6702 C   0  0  0  0  0  0  0  0  0  0  0  0
  130.7213  126.7016  142.4048 C   0  0  0  0  0  0  0  0  0  0  0  0
  131.2921  125.3355  142.4388 C   0  0  0  0  0  0  0  0  0  0  0  0
  132.0913  124.9244  141.2757 C   0  0  0  0  0  0  0  0  0  0  0  0
  132.6672  125.7033  140.3351 N   0  0  0  0  0  0  0  0  0  0  0  0
  133.3182  124.9698  139.4214 C   0  0  0  0  0  0  0  0  0  0  0  0
  134.0586  125.4230  138.2557 C   0  0  0  0  0  0  0  0  0  0  0  0
  135.4290  125.5487  138.2047 C   0  0  0  0  0  0  0  0  0  0  0  0
  136.0532  125.9888  137.0499 C   0  0  0  0  0  0  0  0  0  0  0  0
  135.3686  126.3134  135.9226 C   0  0  0  0  0  0  0  0  0  0  0  0
  133.9713  126.1735  136.0082 C   0  0  0  0  0  0  0  0  0  0  0  0
  133.3689  125.7496  137.1254 N   0  0  0  0  0  0  0  0  0  0  0  0
  133.1228  123.6845  139.8360 N   0  0  0  0  0  0  0  0  0  0  0  0
  132.4063  123.6792  140.9171 O   0  0  0  0  0  0  0  0  0  0  0  0
  130.3352  124.3121  142.9021 C   0  0  0  0  0  0  0  0  0  0  0  0
  129.0941  124.3284  142.0449 C   0  0  0  0  0  0  0  0  0  0  0  0
  1  2  2  0
  2  3  1  0
  4  3  1  1
  4  5  1  0
  5  6  1  0
  6  7  1  6
  7  8  2  0
  8  9  1  0
  9 10  2  0
 10 11  1  0
 11 12  2  0
  2 13  1  0
 13 14  1  0
 14 15  1  0
 15 16  1  0
 16 17  1  0
 17 18  2  0
 18 19  1  0
 19 20  1  0
 20 21  2  0
 21 22  1  0
 22 23  2  0
 23 24  1  0
 24 25  2  0
 19 26  2  0
 26 27  1  0
 16 28  1  0
 28 29  1  0
  6  4  1  0
 12  7  1  0
 29 13  1  0
 27 17  1  0
 25 20  1  0
M  END
>  <docking_score>  (2) 
-8.5280000000000005

$$$$

     RDKit          3D

 29 33  0  0  0  0  0  0  0  0999 V2000
  133.6436  124.9942  139.7532 O   0  0  0  0  0  0  0  0  0  0  0  0
  134.7701  124.9030  140.3627 C   0  0  0  0  0  0  0  0  0  0  0  0
  135.4159  123.6364  140.3475 N   0  0  0  0  0  0  0  0  0  0  0  0
  134.9184  122.4510  139.7114 C   0  0  2  0  0  0  0  0  0  0  0  0
  133.7577  121.6922  140.1582 C   0  0  0  0  0  0  0  0  0  0  0  0
  135.0874  121.1433  140.5357 C   0  0  1  0  0  0  0  0  0  0  0  0
  135.7752  120.0908  139.7684 C   0  0  0  0  0  0  0  0  0  0  0  0
  137.1216  120.1587  139.4537 C   0  0  0  0  0  0  0  0  0  0  0  0
  137.6864  119.1436  138.7246 C   0  0  0  0  0  0  0  0  0  0  0  0
  136.9496  118.0457  138.2904 C   0  0  0  0  0  0  0  0  0  0  0  0
  135.5998  117.9843  138.6100 C   0  0  0  0  0  0  0  0  0  0  0  0
  135.0379  119.0014  139.3392 C   0  0  0  0  0  0  0  0  0  0  0  0
  135.3183  126.0292  141.0156 N   0  0  0  0  0  0  0  0  0  0  0  0
  135.0024  127.3658  140.5992 C   0  0  0  0  0  0  0  0  0  0  0  0
  134.5198  128.2073  141.7628 C   0  0  0  0  0  0  0  0  0  0  0  0
  135.3817  128.0380  142.9552 C   0  0  0  0  0  0  0  0  0  0  0  0
  136.5811  128.8842  143.0287 C   0  0  0  0  0  0  0  0  0  0  0  0
  137.3133  129.3928  142.0146 N   0  0  0  0  0  0  0  0  0  0  0  0
  138.3437  130.1196  142.4691 C   0  0  0  0  0  0  0  0  0  0  0  0
  139.3608  130.8252  141.7077 C   0  0  0  0  0  0  0  0  0  0  0  0
  140.6868  130.9081  142.0701 C   0  0  0  0  0  0  0  0  0  0  0  0
  141.5897  131.6027  141.2833 C   0  0  0  0  0  0  0  0  0  0  0  0
  141.2320  132.2280  140.1318 C   0  0  0  0  0  0  0  0  0  0  0  0
  139.8712  132.1236  139.7904 C   0  0  0  0  0  0  0  0  0  0  0  0
  138.9990  131.4534  140.5525 N   0  0  0  0  0  0  0  0  0  0  0  0
  138.2227  130.0432  143.8262 N   0  0  0  0  0  0  0  0  0  0  0  0
  137.1907  129.3196  144.1319 O   0  0  0  0  0  0  0  0  0  0  0  0
  135.6202  126.6255  143.3097 C   0  0  0  0  0  0  0  0  0  0  0  0
  136.2139  125.8839  142.1380 C   0  0  0  0  0  0  0  0  0  0  0  0
  1  2  2  0
  2  3  1  0
  4  3  1  1
  4  5  1  0
  5  6  1  0
  6  7  1  6
  7  8  2  0
  8  9  1  0
  9 10  2  0
 10 11  1  0
 11 12  2  0
  2 13  1  0
 13 14  1  0
 14 15  1  0
 15 16  1  0
 16 17  1  0
 17 18  2  0
 18 19  1  0
 19 20  1  0
 20 21  2  0
 21 22  1  0
 22 23  2  0
 23 24  1  0
 24 25  2  0
 19 26  2  0
 26 27  1  0
 16 28  1  0
 28 29  1  0
  6  4  1  0
 12  7  1  0
 29 13  1  0
 27 17  1  0
 25 20  1  0
M  END
>  <docking_score>  (3) 
-8.0969999999999995

$$$$
