
     RDKit          3D

 21 22  0  0  0  0  0  0  0  0999 V2000
  139.6424  133.4843  134.1057 O   0  0  0  0  0  0  0  0  0  0  0  0
  140.8189  133.2963  134.5197 C   0  0  0  0  0  0  0  0  0  0  0  0
  141.8081  134.2149  134.1636 N   0  0  0  0  0  0  0  0  0  0  0  0
  143.0217  134.5598  134.7448 C   0  0  0  0  0  0  0  0  0  0  0  0
  144.1938  134.3725  134.0101 C   0  0  0  0  0  0  0  0  0  0  0  0
  145.4458  134.6660  134.4409 C   0  0  0  0  0  0  0  0  0  0  0  0
  146.8833  134.4004  133.4512 Cl  0  0  0  0  0  0  0  0  0  0  0  0
  145.5920  135.1918  135.7022 C   0  0  0  0  0  0  0  0  0  0  0  0
  144.4801  135.4074  136.4924 C   0  0  0  0  0  0  0  0  0  0  0  0
  144.7731  136.0801  138.0749 Cl  0  0  0  0  0  0  0  0  0  0  0  0
  143.1991  135.0927  136.0156 C   0  0  0  0  0  0  0  0  0  0  0  0
  140.9924  132.1363  135.3215 N   0  0  0  0  0  0  0  0  0  0  0  0
  142.2905  131.6779  135.7781 C   0  0  0  0  0  0  0  0  0  0  0  0
  142.4695  131.9786  137.2502 C   0  0  0  0  0  0  0  0  0  0  0  0
  141.1266  131.7751  137.9617 C   0  0  0  0  0  0  0  0  0  0  0  0
  140.4999  133.4922  138.2032 S   0  0  0  0  0  0  0  0  0  0  0  0
  140.7787  134.7771  136.9390 C   0  0  0  0  0  0  0  0  0  0  0  0
  142.1194  135.3770  136.9473 C   0  0  0  0  0  0  0  0  0  0  0  0
  142.3170  136.2306  137.8838 O   0  0  0  0  0  0  0  0  0  0  0  0
  140.1633  133.9597  139.6747 N   0  0  0  0  0  4  0  0  0  0  0  0
  139.6589  134.1615  140.8225 C   0  0  0  0  0  0  0  0  0  0  0  0
  1  2  2  0
  2  3  1  0
  3  4  1  0
  4  5  2  0
  5  6  1  0
  6  7  1  0
  6  8  2  0
  8  9  1  0
  9 10  1  0
  9 11  2  0
  2 12  1  0
 12 13  1  0
 13 14  1  0
 14 15  1  0
 15 16  1  0
 16 17  1  0
 17 18  1  0
 18 19  2  0
 16 20  2  0
 20 21  2  0
 11  4  1  0
 18 11  1  0
M  CHG  1  20   1
M  END
>  <docking_score>  (1) 
-6.3730000000000002

$$$$

     RDKit          3D

 21 22  0  0  0  0  0  0  0  0999 V2000
  129.5382  124.7394  141.0541 O   0  0  0  0  0  0  0  0  0  0  0  0
  130.7970  124.6982  141.1230 C   0  0  0  0  0  0  0  0  0  0  0  0
  131.4789  123.7582  140.3481 N   0  0  0  0  0  0  0  0  0  0  0  0
  132.7780  123.7100  139.8588 C   0  0  0  0  0  0  0  0  0  0  0  0
  133.6039  122.6557  140.2527 C   0  0  0  0  0  0  0  0  0  0  0  0
  134.8876  122.4734  139.8556 C   0  0  0  0  0  0  0  0  0  0  0  0
  135.8712  121.1115  140.3982 Cl  0  0  0  0  0  0  0  0  0  0  0  0
  135.4378  123.3923  138.9944 C   0  0  0  0  0  0  0  0  0  0  0  0
  134.6852  124.4649  138.5579 C   0  0  0  0  0  0  0  0  0  0  0  0
  135.4751  125.5720  137.4656 Cl  0  0  0  0  0  0  0  0  0  0  0  0
  133.3597  124.6234  138.9884 C   0  0  0  0  0  0  0  0  0  0  0  0
  131.3786  125.6445  142.0089 N   0  0  0  0  0  0  0  0  0  0  0  0
  132.7939  125.6650  142.3257 C   0  0  0  0  0  0  0  0  0  0  0  0
  133.4766  126.8168  141.6208 C   0  0  0  0  0  0  0  0  0  0  0  0
  132.5259  128.0197  141.6073 C   0  0  0  0  0  0  0  0  0  0  0  0
  131.8574  128.0241  139.8890 S   0  0  0  0  0  0  0  0  0  0  0  0
  131.5069  126.4610  139.0168 C   0  0  0  0  0  0  0  0  0  0  0  0
  132.6824  125.7903  138.4460 C   0  0  0  0  0  0  0  0  0  0  0  0
  133.1241  126.3162  137.3629 O   0  0  0  0  0  0  0  0  0  0  0  0
  132.0471  129.3314  139.0218 N   0  0  0  0  0  4  0  0  0  0  0  0
  131.9894  130.4877  138.5002 C   0  0  0  0  0  0  0  0  0  0  0  0
  1  2  2  0
  2  3  1  0
  3  4  1  0
  4  5  2  0
  5  6  1  0
  6  7  1  0
  6  8  2  0
  8  9  1  0
  9 10  1  0
  9 11  2  0
  2 12  1  0
 12 13  1  0
 13 14  1  0
 14 15  1  0
 15 16  1  0
 16 17  1  0
 17 18  1  0
 18 19  2  0
 16 20  2  0
 20 21  2  0
 11  4  1  0
 18 11  1  0
M  CHG  1  20   1
M  END
>  <docking_score>  (2) 
-6.2539999999999996

$$$$

     RDKit          3D

 21 22  0  0  0  0  0  0  0  0999 V2000
  141.2321  120.9192  161.4421 O   0  0  0  0  0  0  0  0  0  0  0  0
  142.0164  119.9316  161.4622 C   0  0  0  0  0  0  0  0  0  0  0  0
  142.5177  119.5004  162.6919 N   0  0  0  0  0  0  0  0  0  0  0  0
  143.0106  118.2771  163.1277 C   0  0  0  0  0  0  0  0  0  0  0  0
  144.3287  118.2090  163.5823 C   0  0  0  0  0  0  0  0  0  0  0  0
  144.9443  117.0912  164.0410 C   0  0  0  0  0  0  0  0  0  0  0  0
  146.6186  117.0840  164.6005 Cl  0  0  0  0  0  0  0  0  0  0  0  0
  144.2269  115.9193  164.0678 C   0  0  0  0  0  0  0  0  0  0  0  0
  142.9156  115.9035  163.6346 C   0  0  0  0  0  0  0  0  0  0  0  0
  142.0928  114.3674  163.7114 Cl  0  0  0  0  0  0  0  0  0  0  0  0
  142.3092  117.0783  163.1661 C   0  0  0  0  0  0  0  0  0  0  0  0
  142.2982  119.3658  160.1899 N   0  0  0  0  0  0  0  0  0  0  0  0
  143.2773  118.3142  159.9916 C   0  0  0  0  0  0  0  0  0  0  0  0
  142.5881  116.9890  159.7502 C   0  0  0  0  0  0  0  0  0  0  0  0
  141.3282  117.2342  158.9115 C   0  0  0  0  0  0  0  0  0  0  0  0
  139.9619  117.1465  160.1464 S   0  0  0  0  0  0  0  0  0  0  0  0
  140.1832  117.7990  161.8353 C   0  0  0  0  0  0  0  0  0  0  0  0
  140.9251  116.9205  162.7491 C   0  0  0  0  0  0  0  0  0  0  0  0
  140.2502  115.9282  163.2018 O   0  0  0  0  0  0  0  0  0  0  0  0
  138.8062  116.0970  159.9019 N   0  0  0  0  0  4  0  0  0  0  0  0
  137.7949  115.4438  159.4978 C   0  0  0  0  0  0  0  0  0  0  0  0
  1  2  2  0
  2  3  1  0
  3  4  1  0
  4  5  2  0
  5  6  1  0
  6  7  1  0
  6  8  2  0
  8  9  1  0
  9 10  1  0
  9 11  2  0
  2 12  1  0
 12 13  1  0
 13 14  1  0
 14 15  1  0
 15 16  1  0
 16 17  1  0
 17 18  1  0
 18 19  2  0
 16 20  2  0
 20 21  2  0
 11  4  1  0
 18 11  1  0
M  CHG  1  20   1
M  END
>  <docking_score>  (3) 
-3.5720000000000001

$$$$
