
     RDKit          3D

 25 28  0  0  0  0  0  0  0  0999 V2000
  135.4325  118.2932  138.6803 C   0  0  0  0  0  0  0  0  0  0  0  0
  136.8080  117.7219  138.3722 C   0  0  0  0  0  0  0  0  0  0  0  0
  137.3608  119.1297  138.6199 C   0  0  2  0  0  0  0  0  0  0  0  0
  138.5888  119.0486  139.5004 C   0  0  0  0  0  0  0  0  0  0  0  0
  136.1290  119.4022  139.4378 C   0  0  1  0  0  0  0  0  0  0  0  0
  135.4856  120.6799  139.1948 N   0  0  0  0  0  0  0  0  0  0  0  0
  134.7199  121.3645  140.1510 C   0  0  0  0  0  0  0  0  0  0  0  0
  134.5768  120.8481  141.2896 O   0  0  0  0  0  0  0  0  0  0  0  0
  134.0907  122.6245  139.8984 N   0  0  0  0  0  0  0  0  0  0  0  0
  132.6666  122.7201  139.6441 C   0  0  0  0  0  0  0  0  0  0  0  0
  132.3420  124.1829  139.3974 C   0  0  0  0  0  0  0  0  0  0  0  0
  132.7725  124.9470  140.6131 C   0  0  0  0  0  0  0  0  0  0  0  0
  134.2374  124.7538  140.9467 C   0  0  0  0  0  0  0  0  0  0  0  0
  134.8438  123.8638  139.8845 C   0  0  0  0  0  0  0  0  0  0  0  0
  132.5015  126.4544  140.5227 C   0  0  0  0  0  0  0  0  0  0  0  0
  131.4785  126.2795  141.4981 N   0  0  0  0  0  0  0  0  0  0  0  0
  131.5202  127.0847  142.6751 C   0  0  0  0  0  0  0  0  0  0  0  0
  132.1230  126.3615  143.8669 C   0  0  0  0  0  0  0  0  0  0  0  0
  132.3331  128.3378  142.4559 C   0  0  0  0  0  0  0  0  0  0  0  0
  131.8395  124.8813  141.7771 C   0  0  1  0  0  0  0  0  0  0  0  0
  130.5735  124.1039  141.5311 C   0  0  0  0  0  0  0  0  0  0  0  0
  129.2979  124.3384  141.8700 C   0  0  0  0  0  0  0  0  0  0  0  0
  128.6466  125.4338  142.6053 C   0  0  0  0  0  0  0  0  0  0  0  0
  129.0388  126.6302  143.0426 C   0  0  0  0  0  0  0  0  0  0  0  0
  130.1875  127.4055  143.0291 O   0  0  0  0  0  0  0  0  0  0  0  0
  1  2  1  0
  2  3  1  0
  3  4  1  1
  3  5  1  0
  5  6  1  6
  6  7  1  0
  7  8  2  0
  7  9  1  0
  9 10  1  0
 10 11  1  0
 11 12  1  0
 12 13  1  0
 13 14  1  0
 12 15  1  0
 15 16  1  0
 16 17  1  0
 17 18  1  0
 17 19  1  0
 16 20  1  0
 20 21  1  0
 21 22  2  3
 22 23  1  0
 23 24  2  3
 24 25  1  0
  5  1  1  0
 14  9  1  0
 20 12  1  6
 25 17  1  0
M  END
>  <docking_score>  (1) 
-8.3740000000000006

$$$$

     RDKit          3D

 25 28  0  0  0  0  0  0  0  0999 V2000
  135.1125  117.4223  136.3650 C   0  0  0  0  0  0  0  0  0  0  0  0
  135.7440  117.1153  135.0157 C   0  0  0  0  0  0  0  0  0  0  0  0
  136.7534  118.2264  135.3244 C   0  0  2  0  0  0  0  0  0  0  0  0
  138.1528  117.7489  135.0028 C   0  0  0  0  0  0  0  0  0  0  0  0
  136.4369  118.0243  136.7803 C   0  0  1  0  0  0  0  0  0  0  0  0
  136.2365  119.2366  137.5521 N   0  0  0  0  0  0  0  0  0  0  0  0
  136.1267  119.2642  138.9508 C   0  0  0  0  0  0  0  0  0  0  0  0
  136.2054  118.1787  139.5824 O   0  0  0  0  0  0  0  0  0  0  0  0
  135.9293  120.4672  139.7000 N   0  0  0  0  0  0  0  0  0  0  0  0
  136.7087  121.6601  139.4325 C   0  0  0  0  0  0  0  0  0  0  0  0
  136.2616  122.7294  140.4136 C   0  0  0  0  0  0  0  0  0  0  0  0
  134.7903  122.9336  140.2118 C   0  0  0  0  0  0  0  0  0  0  0  0
  133.9870  121.6601  140.3773 C   0  0  0  0  0  0  0  0  0  0  0  0
  134.9432  120.5523  140.7600 C   0  0  0  0  0  0  0  0  0  0  0  0
  134.1832  124.0003  141.1324 C   0  0  0  0  0  0  0  0  0  0  0  0
  134.0403  124.8365  139.9883 N   0  0  0  0  0  0  0  0  0  0  0  0
  132.7519  125.3779  139.7018 C   0  0  0  0  0  0  0  0  0  0  0  0
  132.0040  124.5959  138.6360 C   0  0  0  0  0  0  0  0  0  0  0  0
  131.8787  125.4011  140.9331 C   0  0  0  0  0  0  0  0  0  0  0  0
  134.4137  123.7772  139.0387 C   0  0  1  0  0  0  0  0  0  0  0  0
  135.5756  124.3469  138.2688 C   0  0  0  0  0  0  0  0  0  0  0  0
  135.7885  125.5571  137.7331 C   0  0  0  0  0  0  0  0  0  0  0  0
  134.9790  126.7849  137.6897 C   0  0  0  0  0  0  0  0  0  0  0  0
  133.8557  127.1866  138.2843 C   0  0  0  0  0  0  0  0  0  0  0  0
  132.9343  126.6852  139.1901 O   0  0  0  0  0  0  0  0  0  0  0  0
  1  2  1  0
  2  3  1  0
  3  4  1  1
  3  5  1  0
  5  6  1  1
  6  7  1  0
  7  8  2  0
  7  9  1  0
  9 10  1  0
 10 11  1  0
 11 12  1  0
 12 13  1  0
 13 14  1  0
 12 15  1  0
 15 16  1  0
 16 17  1  0
 17 18  1  0
 17 19  1  0
 16 20  1  0
 20 21  1  0
 21 22  2  3
 22 23  1  0
 23 24  2  3
 24 25  1  0
  5  1  1  0
 14  9  1  0
 20 12  1  1
 25 17  1  0
M  END
>  <docking_score>  (2) 
-7.6609999999999996

$$$$

     RDKit          3D

 25 28  0  0  0  0  0  0  0  0999 V2000
  147.0780  137.6415  130.4278 C   0  0  0  0  0  0  0  0  0  0  0  0
  148.0118  138.8416  130.4653 C   0  0  0  0  0  0  0  0  0  0  0  0
  148.5639  138.2708  131.7762 C   0  0  2  0  0  0  0  0  0  0  0  0
  150.0764  138.3147  131.7554 C   0  0  0  0  0  0  0  0  0  0  0  0
  148.0582  136.9265  131.3316 C   0  0  1  0  0  0  0  0  0  0  0  0
  147.3622  136.1531  132.3430 N   0  0  0  0  0  0  0  0  0  0  0  0
  147.7639  134.8767  132.7656 C   0  0  0  0  0  0  0  0  0  0  0  0
  148.7871  134.3637  132.2426 O   0  0  0  0  0  0  0  0  0  0  0  0
  147.0685  134.1245  133.7645 N   0  0  0  0  0  0  0  0  0  0  0  0
  146.8417  134.6608  135.0923 C   0  0  0  0  0  0  0  0  0  0  0  0
  146.1032  133.6034  135.8939 C   0  0  0  0  0  0  0  0  0  0  0  0
  144.8320  133.2949  135.1618 C   0  0  0  0  0  0  0  0  0  0  0  0
  145.0643  132.8451  133.7342 C   0  0  0  0  0  0  0  0  0  0  0  0
  146.5577  132.7934  133.4990 C   0  0  0  0  0  0  0  0  0  0  0  0
  143.9606  132.2398  135.8556 C   0  0  0  0  0  0  0  0  0  0  0  0
  143.0421  133.2800  136.1765 N   0  0  0  0  0  0  0  0  0  0  0  0
  141.6766  133.1189  135.7961 C   0  0  0  0  0  0  0  0  0  0  0  0
  141.3280  133.8532  134.5131 C   0  0  0  0  0  0  0  0  0  0  0  0
  141.3322  131.6642  135.5850 C   0  0  0  0  0  0  0  0  0  0  0  0
  143.7277  134.2828  135.3473 C   0  0  1  0  0  0  0  0  0  0  0  0
  144.0399  135.4117  136.2937 C   0  0  0  0  0  0  0  0  0  0  0  0
  143.3121  136.0072  137.2490 C   0  0  0  0  0  0  0  0  0  0  0  0
  141.9415  135.7919  137.7384 C   0  0  0  0  0  0  0  0  0  0  0  0
  141.0129  134.8566  137.5393 C   0  0  0  0  0  0  0  0  0  0  0  0
  140.8724  133.6830  136.8156 O   0  0  0  0  0  0  0  0  0  0  0  0
  1  2  1  0
  2  3  1  0
  3  4  1  6
  3  5  1  0
  5  6  1  1
  6  7  1  0
  7  8  2  0
  7  9  1  0
  9 10  1  0
 10 11  1  0
 11 12  1  0
 12 13  1  0
 13 14  1  0
 12 15  1  0
 15 16  1  0
 16 17  1  0
 17 18  1  0
 17 19  1  0
 16 20  1  0
 20 21  1  0
 21 22  2  3
 22 23  1  0
 23 24  2  3
 24 25  1  0
  5  1  1  0
 14  9  1  0
 20 12  1  1
 25 17  1  0
M  END
>  <docking_score>  (3) 
-7.4939999999999998

$$$$
