
     RDKit          3D

 22 24  0  0  0  0  0  0  0  0999 V2000
  124.6244  122.7120  145.7533 O   0  0  0  0  0  0  0  0  0  0  0  0
  124.4893  123.4336  144.7315 C   0  0  0  0  0  0  0  0  0  0  0  0
  125.7089  124.1136  144.4457 N   0  0  0  0  0  0  0  0  0  0  0  0
  126.1163  125.1388  143.5324 C   0  0  0  0  0  0  0  0  0  0  0  0
  127.4629  125.3845  143.7918 C   0  0  0  0  0  0  0  0  0  0  0  0
  128.1383  126.3381  143.0559 C   0  0  0  0  0  0  0  0  0  0  0  0
  129.8408  126.6863  143.3447 Cl  0  0  0  0  0  0  0  0  0  0  0  0
  127.4435  127.0175  142.0813 C   0  0  0  0  0  0  0  0  0  0  0  0
  126.0979  126.7746  141.8194 C   0  0  0  0  0  0  0  0  0  0  0  0
  125.4076  127.4355  140.8657 F   0  0  0  0  0  0  0  0  0  0  0  0
  125.4332  125.8267  142.5535 C   0  0  0  0  0  0  0  0  0  0  0  0
  123.1941  123.3908  144.1373 N   0  0  0  0  0  0  0  0  0  0  0  0
  122.5503  123.9453  142.9619 C   0  0  0  0  0  0  0  0  0  0  0  0
  121.2864  123.3117  142.6633 C   0  0  0  0  0  0  0  0  0  0  0  0
  120.4131  124.2001  141.8636 C   0  0  0  0  0  0  0  0  0  0  0  0
  121.6910  125.1116  140.8967 S   0  0  2  0  0  0  0  0  0  0  0  0
  122.9598  124.8948  142.1961 C   0  0  0  0  0  0  0  0  0  0  0  0
  124.0733  125.8224  142.0372 C   0  0  0  0  0  0  0  0  0  0  0  0
  123.7913  126.8133  141.3060 O   0  0  0  0  0  0  0  0  0  0  0  0
  121.1218  127.0698  141.0815 C   0  0  0  0  0  0  0  0  0  0  0  0
  121.8764  124.7629  139.3365 C   0  0  0  0  0  0  0  0  0  0  0  0
  120.8444  123.4265  138.7869 Cl  0  0  0  0  0  0  0  0  0  0  0  0
  1  2  2  0
  2  3  1  0
  3  4  1  0
  4  5  2  0
  5  6  1  0
  6  7  1  0
  6  8  2  0
  8  9  1  0
  9 10  1  0
  9 11  2  0
  2 12  1  0
 12 13  1  0
 13 14  1  0
 14 15  1  0
 15 16  1  0
 16 17  1  0
 17 18  1  0
 18 19  2  0
 16 20  1  6
 16 21  1  0
 21 22  1  0
 11  4  1  0
 18 11  1  0
 13 17  2  0
M  END
>  <docking_score>  (1) 
-7.2130000000000001

$$$$

     RDKit          3D

 22 24  0  0  0  0  0  0  0  0999 V2000
  140.1960  134.9236  142.3790 O   0  0  0  0  0  0  0  0  0  0  0  0
  140.6219  134.8384  141.1981 C   0  0  0  0  0  0  0  0  0  0  0  0
  141.6702  135.7802  140.9850 N   0  0  0  0  0  0  0  0  0  0  0  0
  142.4194  136.2349  139.8522 C   0  0  0  0  0  0  0  0  0  0  0  0
  143.2896  137.2154  140.3236 C   0  0  0  0  0  0  0  0  0  0  0  0
  144.1503  137.8451  139.4463 C   0  0  0  0  0  0  0  0  0  0  0  0
  145.2698  139.0910  139.9920 Cl  0  0  0  0  0  0  0  0  0  0  0  0
  144.1131  137.4733  138.1217 C   0  0  0  0  0  0  0  0  0  0  0  0
  143.2448  136.4940  137.6471 C   0  0  0  0  0  0  0  0  0  0  0  0
  143.2007  136.1221  136.3499 F   0  0  0  0  0  0  0  0  0  0  0  0
  142.3929  135.8726  138.5232 C   0  0  0  0  0  0  0  0  0  0  0  0
  139.9704  133.8546  140.3980 N   0  0  0  0  0  0  0  0  0  0  0  0
  140.1104  133.3187  139.0576 C   0  0  0  0  0  0  0  0  0  0  0  0
  139.3762  132.0890  138.8657 C   0  0  0  0  0  0  0  0  0  0  0  0
  139.0672  131.8626  137.4359 C   0  0  0  0  0  0  0  0  0  0  0  0
  140.5463  132.6480  136.6652 S   0  0  2  0  0  0  0  0  0  0  0  0
  140.7808  133.7969  138.0688 C   0  0  0  0  0  0  0  0  0  0  0  0
  141.6386  134.9230  137.7200 C   0  0  0  0  0  0  0  0  0  0  0  0
  141.7399  135.1002  136.4732 O   0  0  0  0  0  0  0  0  0  0  0  0
  139.7482  133.8233  135.1906 C   0  0  0  0  0  0  0  0  0  0  0  0
  141.6813  131.7019  136.0270 C   0  0  0  0  0  0  0  0  0  0  0  0
  143.3276  132.3273  136.2534 Cl  0  0  0  0  0  0  0  0  0  0  0  0
  1  2  2  0
  2  3  1  0
  3  4  1  0
  4  5  2  0
  5  6  1  0
  6  7  1  0
  6  8  2  0
  8  9  1  0
  9 10  1  0
  9 11  2  0
  2 12  1  0
 12 13  1  0
 13 14  1  0
 14 15  1  0
 15 16  1  0
 16 17  1  0
 17 18  1  0
 18 19  2  0
 16 20  1  6
 16 21  1  0
 21 22  1  0
 11  4  1  0
 18 11  1  0
 13 17  2  0
M  END
>  <docking_score>  (2) 
-7.101

$$$$

     RDKit          3D

 22 24  0  0  0  0  0  0  0  0999 V2000
  138.8304  133.3424  132.6719 O   0  0  0  0  0  0  0  0  0  0  0  0
  139.6429  133.3661  133.6323 C   0  0  0  0  0  0  0  0  0  0  0  0
  139.0651  132.7490  134.7798 N   0  0  0  0  0  0  0  0  0  0  0  0
  139.4335  132.6060  136.1564 C   0  0  0  0  0  0  0  0  0  0  0  0
  138.3947  131.9107  136.7716 C   0  0  0  0  0  0  0  0  0  0  0  0
  138.4699  131.6208  138.1197 C   0  0  0  0  0  0  0  0  0  0  0  0
  137.1835  130.7444  138.9445 Cl  0  0  0  0  0  0  0  0  0  0  0  0
  139.5845  132.0367  138.8115 C   0  0  0  0  0  0  0  0  0  0  0  0
  140.6244  132.7317  138.2001 C   0  0  0  0  0  0  0  0  0  0  0  0
  141.7218  133.1439  138.8698 F   0  0  0  0  0  0  0  0  0  0  0  0
  140.5437  133.0163  136.8615 C   0  0  0  0  0  0  0  0  0  0  0  0
  140.8943  133.9835  133.3405 N   0  0  0  0  0  0  0  0  0  0  0  0
  142.1516  134.2039  134.0292 C   0  0  0  0  0  0  0  0  0  0  0  0
  143.2146  134.6116  133.1392 C   0  0  0  0  0  0  0  0  0  0  0  0
  144.2743  135.3467  133.8657 C   0  0  0  0  0  0  0  0  0  0  0  0
  144.1767  134.5049  135.5029 S   0  0  2  0  0  0  0  0  0  0  0  0
  142.4100  134.0854  135.2841 C   0  0  0  0  0  0  0  0  0  0  0  0
  141.7678  133.7358  136.5455 C   0  0  0  0  0  0  0  0  0  0  0  0
  142.4081  134.1420  137.5560 O   0  0  0  0  0  0  0  0  0  0  0  0
  144.1559  136.0580  136.8371 C   0  0  0  0  0  0  0  0  0  0  0  0
  145.3422  133.4739  135.9143 C   0  0  0  0  0  0  0  0  0  0  0  0
  145.2886  131.9512  135.0025 Cl  0  0  0  0  0  0  0  0  0  0  0  0
  1  2  2  0
  2  3  1  0
  3  4  1  0
  4  5  2  0
  5  6  1  0
  6  7  1  0
  6  8  2  0
  8  9  1  0
  9 10  1  0
  9 11  2  0
  2 12  1  0
 12 13  1  0
 13 14  1  0
 14 15  1  0
 15 16  1  0
 16 17  1  0
 17 18  1  0
 18 19  2  0
 16 20  1  1
 16 21  1  0
 21 22  1  0
 11  4  1  0
 18 11  1  0
 13 17  2  0
M  END
>  <docking_score>  (3) 
-6.9160000000000004

$$$$
