
     RDKit          3D

 30 34  0  0  0  0  0  0  0  0999 V2000
  133.8855  120.8730  140.3493 O   0  0  0  0  0  0  0  0  0  0  0  0
  134.7944  121.6835  140.1613 C   0  0  0  0  0  0  0  0  0  0  0  0
  136.1125  121.2434  139.9481 N   0  0  0  0  0  0  0  0  0  0  0  0
  136.5688  119.8964  139.9183 C   0  0  2  0  0  0  0  0  0  0  0  0
  137.9253  119.4317  140.1894 C   0  0  0  0  0  0  0  0  0  0  0  0
  137.6262  119.7001  138.7878 C   0  0  1  0  0  0  0  0  0  0  0  0
  137.3284  118.6264  137.8211 C   0  0  0  0  0  0  0  0  0  0  0  0
  136.4071  118.8176  136.8428 C   0  0  0  0  0  0  0  0  0  0  0  0
  136.1037  117.8435  135.9187 C   0  0  0  0  0  0  0  0  0  0  0  0
  136.7708  116.6314  136.0044 C   0  0  0  0  0  0  0  0  0  0  0  0
  137.7133  116.3925  136.9804 C   0  0  0  0  0  0  0  0  0  0  0  0
  137.9781  117.4025  137.8795 C   0  0  0  0  0  0  0  0  0  0  0  0
  134.5858  123.0893  140.1449 N   0  0  0  0  0  0  0  0  0  0  0  0
  133.2716  123.6836  140.3523 C   0  0  2  0  0  0  0  0  0  0  0  0
  132.4956  123.7675  139.0506 C   0  0  0  0  0  0  0  0  0  0  0  0
  133.2037  124.6765  138.0978 C   0  0  1  0  0  0  0  0  0  0  0  0
  132.6450  126.0613  138.0626 C   0  0  0  0  0  0  0  0  0  0  0  0
  133.1463  127.1248  137.3698 N   0  0  0  0  0  0  0  0  0  0  0  0
  132.3716  128.2034  137.5836 C   0  0  0  0  0  0  0  0  0  0  0  0
  132.5298  129.5640  137.0430 C   0  0  0  0  0  0  0  0  0  0  0  0
  131.7682  130.0016  136.0908 C   0  0  0  0  0  0  0  0  0  0  0  0
  131.7654  131.2731  135.4416 C   0  0  0  0  0  0  0  0  0  0  0  0
  132.6052  132.2794  135.7325 C   0  0  0  0  0  0  0  0  0  0  0  0
  133.7565  131.8624  137.0481 S   0  0  0  0  0  0  0  0  0  0  0  0
  133.5735  130.3681  137.6337 N   0  0  0  0  0  0  0  0  0  0  0  0
  131.4056  127.7720  138.4119 N   0  0  0  0  0  0  0  0  0  0  0  0
  131.5872  126.4924  138.6847 O   0  0  0  0  0  0  0  0  0  0  0  0
  134.6706  124.7375  138.5554 C   0  0  0  0  0  0  0  0  0  0  0  0
  134.6567  125.6645  139.7757 C   0  0  0  0  0  0  0  0  0  0  0  0
  133.5851  125.1437  140.7409 C   0  0  0  0  0  0  0  0  0  0  0  0
  1  2  2  0
  2  3  1  0
  4  3  1  1
  4  5  1  0
  5  6  1  0
  6  7  1  6
  7  8  2  0
  8  9  1  0
  9 10  2  0
 10 11  1  0
 11 12  2  0
  2 13  1  0
 14 13  1  6
 14 15  1  0
 15 16  1  0
 16 17  1  1
 17 18  2  0
 18 19  1  0
 19 20  1  0
 20 21  2  0
 21 22  1  0
 22 23  2  0
 23 24  1  0
 24 25  2  0
 19 26  2  0
 26 27  1  0
 16 28  1  0
 28 29  1  0
 29 30  1  0
  6  4  1  0
 12  7  1  0
 30 14  1  0
 27 17  1  0
 25 20  1  0
M  END
>  <docking_score>  (1) 
-9.2270000000000003

$$$$

     RDKit          3D

 30 34  0  0  0  0  0  0  0  0999 V2000
  132.5373  123.4250  139.2010 O   0  0  0  0  0  0  0  0  0  0  0  0
  133.6370  123.9787  139.1544 C   0  0  0  0  0  0  0  0  0  0  0  0
  134.8009  123.2913  139.5409 N   0  0  0  0  0  0  0  0  0  0  0  0
  134.8849  121.9512  140.0105 C   0  0  2  0  0  0  0  0  0  0  0  0
  135.8637  121.4202  140.9538 C   0  0  0  0  0  0  0  0  0  0  0  0
  136.2195  121.2896  139.5459 C   0  0  1  0  0  0  0  0  0  0  0  0
  136.0742  120.0219  138.8058 C   0  0  0  0  0  0  0  0  0  0  0  0
  136.6395  119.8716  137.5810 C   0  0  0  0  0  0  0  0  0  0  0  0
  136.5314  118.7039  136.8601 C   0  0  0  0  0  0  0  0  0  0  0  0
  135.8172  117.6553  137.4184 C   0  0  0  0  0  0  0  0  0  0  0  0
  135.2264  117.7625  138.6583 C   0  0  0  0  0  0  0  0  0  0  0  0
  135.3662  118.9539  139.3364 C   0  0  0  0  0  0  0  0  0  0  0  0
  133.8097  125.3199  138.7169 N   0  0  0  0  0  0  0  0  0  0  0  0
  132.6906  126.1490  138.2883 C   0  0  2  0  0  0  0  0  0  0  0  0
  133.1083  127.1092  137.1895 C   0  0  0  0  0  0  0  0  0  0  0  0
  134.1372  128.0594  137.7130 C   0  0  1  0  0  0  0  0  0  0  0  0
  133.5792  129.3848  138.1171 C   0  0  0  0  0  0  0  0  0  0  0  0
  132.3349  129.8664  137.8307 N   0  0  0  0  0  0  0  0  0  0  0  0
  132.1964  131.0935  138.3639 C   0  0  0  0  0  0  0  0  0  0  0  0
  131.0281  131.9881  138.3074 C   0  0  0  0  0  0  0  0  0  0  0  0
  129.9498  131.7284  138.9767 C   0  0  0  0  0  0  0  0  0  0  0  0
  128.7280  132.4631  139.0515 C   0  0  0  0  0  0  0  0  0  0  0  0
  128.4875  133.6109  138.3978 C   0  0  0  0  0  0  0  0  0  0  0  0
  129.8835  134.1454  137.3999 S   0  0  0  0  0  0  0  0  0  0  0  0
  131.1592  133.1570  137.4699 N   0  0  0  0  0  0  0  0  0  0  0  0
  133.3710  131.3383  138.9686 N   0  0  0  0  0  0  0  0  0  0  0  0
  134.1808  130.3069  138.8095 O   0  0  0  0  0  0  0  0  0  0  0  0
  134.7740  127.3865  138.9404 C   0  0  0  0  0  0  0  0  0  0  0  0
  133.7345  127.5511  140.0544 C   0  0  0  0  0  0  0  0  0  0  0  0
  132.3948  127.0325  139.5182 C   0  0  0  0  0  0  0  0  0  0  0  0
  1  2  2  0
  2  3  1  0
  4  3  1  1
  4  5  1  0
  5  6  1  0
  6  7  1  6
  7  8  2  0
  8  9  1  0
  9 10  2  0
 10 11  1  0
 11 12  2  0
  2 13  1  0
 14 13  1  1
 14 15  1  0
 15 16  1  0
 16 17  1  1
 17 18  2  0
 18 19  1  0
 19 20  1  0
 20 21  2  0
 21 22  1  0
 22 23  2  0
 23 24  1  0
 24 25  2  0
 19 26  2  0
 26 27  1  0
 16 28  1  0
 28 29  1  0
 29 30  1  0
  6  4  1  0
 12  7  1  0
 30 14  1  0
 27 17  1  0
 25 20  1  0
M  END
>  <docking_score>  (2) 
-7.9809999999999999

$$$$

     RDKit          3D

 30 34  0  0  0  0  0  0  0  0999 V2000
  141.1309  136.0282  137.6076 O   0  0  0  0  0  0  0  0  0  0  0  0
  141.7278  135.4154  138.4944 C   0  0  0  0  0  0  0  0  0  0  0  0
  141.5667  134.0261  138.6367 N   0  0  0  0  0  0  0  0  0  0  0  0
  140.7513  133.1750  137.8401 C   0  0  2  0  0  0  0  0  0  0  0  0
  140.9995  131.7697  137.5347 C   0  0  0  0  0  0  0  0  0  0  0  0
  141.5186  132.7213  136.5595 C   0  0  1  0  0  0  0  0  0  0  0  0
  140.8367  132.9977  135.2810 C   0  0  0  0  0  0  0  0  0  0  0  0
  141.3643  133.8822  134.3970 C   0  0  0  0  0  0  0  0  0  0  0  0
  140.7621  134.1645  133.1918 C   0  0  0  0  0  0  0  0  0  0  0  0
  139.5765  133.5147  132.8860 C   0  0  0  0  0  0  0  0  0  0  0  0
  139.0042  132.6095  133.7525 C   0  0  0  0  0  0  0  0  0  0  0  0
  139.6494  132.3644  134.9450 C   0  0  0  0  0  0  0  0  0  0  0  0
  142.6035  136.0490  139.4173 N   0  0  0  0  0  0  0  0  0  0  0  0
  142.8628  137.4826  139.3859 C   0  0  2  0  0  0  0  0  0  0  0  0
  144.0137  137.8118  138.4527 C   0  0  0  0  0  0  0  0  0  0  0  0
  145.2722  137.1852  138.9619 C   0  0  1  0  0  0  0  0  0  0  0  0
  146.1426  138.1259  139.7292 C   0  0  0  0  0  0  0  0  0  0  0  0
  147.2402  137.7989  140.4713 N   0  0  0  0  0  0  0  0  0  0  0  0
  147.7629  138.9138  141.0123 C   0  0  0  0  0  0  0  0  0  0  0  0
  148.9443  139.0404  141.8823 C   0  0  0  0  0  0  0  0  0  0  0  0
  148.9221  138.6276  143.1100 C   0  0  0  0  0  0  0  0  0  0  0  0
  149.9516  138.6617  144.0986 C   0  0  0  0  0  0  0  0  0  0  0  0
  151.1827  139.1593  143.9002 C   0  0  0  0  0  0  0  0  0  0  0  0
  151.4146  139.7899  142.2332 S   0  0  0  0  0  0  0  0  0  0  0  0
  150.1128  139.6456  141.2879 N   0  0  0  0  0  0  0  0  0  0  0  0
  146.9648  139.9073  140.5866 N   0  0  0  0  0  0  0  0  0  0  0  0
  146.0055  139.4159  139.8230 O   0  0  0  0  0  0  0  0  0  0  0  0
  144.8472  136.0291  139.8825 C   0  0  0  0  0  0  0  0  0  0  0  0
  144.4001  136.7119  141.1796 C   0  0  0  0  0  0  0  0  0  0  0  0
  143.3804  137.7943  140.8057 C   0  0  0  0  0  0  0  0  0  0  0  0
  1  2  2  0
  2  3  1  0
  4  3  1  1
  4  5  1  0
  5  6  1  0
  6  7  1  6
  7  8  2  0
  8  9  1  0
  9 10  2  0
 10 11  1  0
 11 12  2  0
  2 13  1  0
 14 13  1  1
 14 15  1  0
 15 16  1  0
 16 17  1  1
 17 18  2  0
 18 19  1  0
 19 20  1  0
 20 21  2  0
 21 22  1  0
 22 23  2  0
 23 24  1  0
 24 25  2  0
 19 26  2  0
 26 27  1  0
 16 28  1  0
 28 29  1  0
 29 30  1  0
  6  4  1  0
 12  7  1  0
 30 14  1  0
 27 17  1  0
 25 20  1  0
M  END
>  <docking_score>  (3) 
-7.9269999999999996

$$$$
