
     RDKit          3D

 24 26  0  0  0  0  0  0  0  0999 V2000
  141.4686  132.6579  139.5263 O   0  0  0  0  0  0  0  0  0  0  0  0
  140.7346  132.6190  138.5076 C   0  0  0  0  0  0  0  0  0  0  0  0
  141.4905  132.8885  137.3327 N   0  0  0  0  0  0  0  0  0  0  0  0
  141.1608  133.2480  135.9906 C   0  0  0  0  0  0  0  0  0  0  0  0
  142.3620  133.6167  135.3807 C   0  0  0  0  0  0  0  0  0  0  0  0
  142.4027  134.0264  134.0645 C   0  0  0  0  0  0  0  0  0  0  0  0
  143.9131  134.4955  133.2811 Cl  0  0  0  0  0  0  0  0  0  0  0  0
  141.2111  134.0600  133.3655 C   0  0  0  0  0  0  0  0  0  0  0  0
  140.0061  133.6929  133.9684 C   0  0  0  0  0  0  0  0  0  0  0  0
  138.4821  133.7259  133.1108 Cl  0  0  0  0  0  0  0  0  0  0  0  0
  139.9783  133.2851  135.2854 C   0  0  0  0  0  0  0  0  0  0  0  0
  139.3535  132.3209  138.7709 N   0  0  0  0  0  0  0  0  0  0  0  0
  138.2069  132.0063  137.9639 C   0  0  0  0  0  0  0  0  0  0  0  0
  137.1150  131.2373  138.6185 C   0  0  0  0  0  0  0  0  0  0  0  0
  135.9298  131.4066  137.7023 C   0  0  2  0  0  0  0  0  0  0  0  0
  136.5548  131.6972  136.3597 C   0  0  0  0  0  0  0  0  0  0  0  0
  137.8780  132.2518  136.7119 C   0  0  0  0  0  0  0  0  0  0  0  0
  138.5961  132.9706  135.6285 C   0  0  0  0  0  0  0  0  0  0  0  0
  137.8146  133.4517  134.7516 O   0  0  0  0  0  0  0  0  0  0  0  0
  135.0420  132.4768  138.1370 N   0  0  0  0  0  0  0  0  0  0  0  0
  135.0808  130.1436  137.6519 C   0  0  0  0  0  0  0  0  0  0  0  0
  134.2486  130.0980  136.0399 S   0  0  0  0  0  0  0  0  0  0  0  0
  132.4477  130.0507  136.2130 C   0  0  0  0  0  0  0  0  0  0  0  0
  131.6584  131.2408  135.1603 Cl  0  0  0  0  0  0  0  0  0  0  0  0
  1  2  2  0
  2  3  1  0
  3  4  1  0
  4  5  2  0
  5  6  1  0
  6  7  1  0
  6  8  2  0
  8  9  1  0
  9 10  1  0
  9 11  2  0
  2 12  1  0
 12 13  1  0
 13 14  1  0
 14 15  1  0
 15 16  1  0
 16 17  1  0
 17 18  1  0
 18 19  2  0
 15 20  1  1
 15 21  1  0
 21 22  1  0
 22 23  1  0
 23 24  1  0
 11  4  1  0
 18 11  1  0
 13 17  2  0
M  END
>  <docking_score>  (1) 
-6.7990000000000004

$$$$

     RDKit          3D

 24 26  0  0  0  0  0  0  0  0999 V2000
  136.6834  118.8948  132.0744 O   0  0  0  0  0  0  0  0  0  0  0  0
  137.0477  118.0054  132.8833 C   0  0  0  0  0  0  0  0  0  0  0  0
  136.6656  118.3461  134.2109 N   0  0  0  0  0  0  0  0  0  0  0  0
  137.0427  117.8884  135.5100 C   0  0  0  0  0  0  0  0  0  0  0  0
  136.4924  118.7968  136.4169 C   0  0  0  0  0  0  0  0  0  0  0  0
  136.6690  118.6499  137.7768 C   0  0  0  0  0  0  0  0  0  0  0  0
  135.9798  119.7902  138.9343 Cl  0  0  0  0  0  0  0  0  0  0  0  0
  137.4111  117.5696  138.2147 C   0  0  0  0  0  0  0  0  0  0  0  0
  137.9646  116.6572  137.3139 C   0  0  0  0  0  0  0  0  0  0  0  0
  138.9093  115.2812  137.8370 Cl  0  0  0  0  0  0  0  0  0  0  0  0
  137.7811  116.8149  135.9563 C   0  0  0  0  0  0  0  0  0  0  0  0
  137.7402  116.8958  132.2876 N   0  0  0  0  0  0  0  0  0  0  0  0
  138.1811  115.6062  132.7429 C   0  0  0  0  0  0  0  0  0  0  0  0
  138.3613  114.5535  131.7077 C   0  0  0  0  0  0  0  0  0  0  0  0
  139.1843  113.4894  132.3882 C   0  0  2  0  0  0  0  0  0  0  0  0
  138.8896  113.6927  133.8543 C   0  0  0  0  0  0  0  0  0  0  0  0
  138.4786  115.1098  133.9266 C   0  0  0  0  0  0  0  0  0  0  0  0
  138.4683  115.7203  135.2806 C   0  0  0  0  0  0  0  0  0  0  0  0
  139.2684  115.1519  136.0856 O   0  0  0  0  0  0  0  0  0  0  0  0
  140.6054  113.6144  132.0922 N   0  0  0  0  0  0  0  0  0  0  0  0
  138.7761  112.0947  131.9334 C   0  0  0  0  0  0  0  0  0  0  0  0
  138.0609  112.2397  130.2719 S   0  0  0  0  0  0  0  0  0  0  0  0
  136.2761  111.9401  130.2787 C   0  0  0  0  0  0  0  0  0  0  0  0
  135.5934  112.0959  131.9088 Cl  0  0  0  0  0  0  0  0  0  0  0  0
  1  2  2  0
  2  3  1  0
  3  4  1  0
  4  5  2  0
  5  6  1  0
  6  7  1  0
  6  8  2  0
  8  9  1  0
  9 10  1  0
  9 11  2  0
  2 12  1  0
 12 13  1  0
 13 14  1  0
 14 15  1  0
 15 16  1  0
 16 17  1  0
 17 18  1  0
 18 19  2  0
 15 20  1  1
 15 21  1  0
 21 22  1  0
 22 23  1  0
 23 24  1  0
 11  4  1  0
 18 11  1  0
 13 17  2  0
M  END
>  <docking_score>  (2) 
-6.782

$$$$

     RDKit          3D

 24 26  0  0  0  0  0  0  0  0999 V2000
  139.0303  133.7926  131.7488 O   0  0  0  0  0  0  0  0  0  0  0  0
  139.1672  133.5534  132.9744 C   0  0  0  0  0  0  0  0  0  0  0  0
  140.4925  133.8490  133.3995 N   0  0  0  0  0  0  0  0  0  0  0  0
  141.2719  133.5195  134.5498 C   0  0  0  0  0  0  0  0  0  0  0  0
  142.5822  133.9022  134.2540 C   0  0  0  0  0  0  0  0  0  0  0  0
  143.6051  133.7210  135.1611 C   0  0  0  0  0  0  0  0  0  0  0  0
  145.2654  134.1994  134.8007 Cl  0  0  0  0  0  0  0  0  0  0  0  0
  143.2900  133.1464  136.3776 C   0  0  0  0  0  0  0  0  0  0  0  0
  141.9824  132.7611  136.6806 C   0  0  0  0  0  0  0  0  0  0  0  0
  141.5524  132.0305  138.2105 Cl  0  0  0  0  0  0  0  0  0  0  0  0
  140.9680  132.9473  135.7651 C   0  0  0  0  0  0  0  0  0  0  0  0
  137.9875  133.0548  133.6267 N   0  0  0  0  0  0  0  0  0  0  0  0
  137.6025  132.8099  134.9892 C   0  0  0  0  0  0  0  0  0  0  0  0
  136.1455  132.8179  135.2878 C   0  0  0  0  0  0  0  0  0  0  0  0
  136.0311  132.1556  136.6372 C   0  0  2  0  0  0  0  0  0  0  0  0
  137.3855  132.3833  137.2629 C   0  0  0  0  0  0  0  0  0  0  0  0
  138.2737  132.5674  136.0968 C   0  0  0  0  0  0  0  0  0  0  0  0
  139.7311  132.4534  136.3594 C   0  0  0  0  0  0  0  0  0  0  0  0
  139.9967  131.7341  137.3710 O   0  0  0  0  0  0  0  0  0  0  0  0
  135.7063  130.7392  136.5334 N   0  0  0  0  0  0  0  0  0  0  0  0
  134.9258  132.7854  137.4741 C   0  0  0  0  0  0  0  0  0  0  0  0
  133.6375  133.3740  136.3397 S   0  0  0  0  0  0  0  0  0  0  0  0
  132.4774  134.4940  137.1614 C   0  0  0  0  0  0  0  0  0  0  0  0
  130.7948  133.9892  136.9134 Cl  0  0  0  0  0  0  0  0  0  0  0  0
  1  2  2  0
  2  3  1  0
  3  4  1  0
  4  5  2  0
  5  6  1  0
  6  7  1  0
  6  8  2  0
  8  9  1  0
  9 10  1  0
  9 11  2  0
  2 12  1  0
 12 13  1  0
 13 14  1  0
 14 15  1  0
 15 16  1  0
 16 17  1  0
 17 18  1  0
 18 19  2  0
 15 20  1  6
 15 21  1  0
 21 22  1  0
 22 23  1  0
 23 24  1  0
 11  4  1  0
 18 11  1  0
 13 17  2  0
M  END
>  <docking_score>  (3) 
-6.7569999999999997

$$$$
