
     RDKit          3D

 22 23  0  0  0  0  0  0  0  0999 V2000
  129.5413  138.5757  139.3302 O   0  0  0  0  0  0  0  0  0  0  0  0
  130.1542  137.6669  139.9749 C   0  0  0  0  0  0  0  0  0  0  0  0
  129.4704  137.0800  141.0364 N   0  0  0  0  0  0  0  0  0  0  0  0
  129.3653  135.7142  141.3940 C   0  0  0  0  0  0  0  0  0  0  0  0
  129.5100  135.3767  142.7270 C   0  0  0  0  0  0  0  0  0  0  0  0
  129.4301  134.0962  143.2064 C   0  0  0  0  0  0  0  0  0  0  0  0
  129.6183  133.7024  144.9037 Cl  0  0  0  0  0  0  0  0  0  0  0  0
  129.1941  133.0797  142.3296 C   0  0  0  0  0  0  0  0  0  0  0  0
  129.0434  133.3721  140.9900 C   0  0  0  0  0  0  0  0  0  0  0  0
  128.7412  132.0269  139.9093 Cl  0  0  0  0  0  0  0  0  0  0  0  0
  129.1267  134.6858  140.5079 C   0  0  0  0  0  0  0  0  0  0  0  0
  131.4676  137.3463  139.5469 N   0  0  0  0  0  0  0  0  0  0  0  0
  132.0384  136.0022  139.7283 C   0  0  0  0  0  0  0  0  0  0  0  0
  133.1095  135.8601  138.6671 C   0  0  0  0  0  0  0  0  0  0  0  0
  132.8259  134.7314  137.7089 C   0  0  0  0  0  0  0  0  0  0  0  0
  131.2540  134.0504  138.0605 S   0  0  0  0  0  0  0  0  0  0  0  0
  130.1345  135.2268  138.2901 C   0  0  0  0  0  0  0  0  0  0  0  0
  128.9447  134.8374  139.0640 C   0  0  1  0  0  0  0  0  0  0  0  0
  128.1491  133.7498  138.4897 C   0  0  0  0  0  0  0  0  0  0  0  0
  127.8461  133.6439  137.3191 O   0  0  0  0  0  0  0  0  0  0  0  0
  131.7088  133.4557  140.1060 F   0  0  0  0  0  0  0  0  0  0  0  0
  130.9551  132.4892  137.5076 F   0  0  0  0  0  0  0  0  0  0  0  0
  1  2  2  0
  2  3  1  0
  3  4  1  0
  4  5  2  0
  5  6  1  0
  6  7  1  0
  6  8  2  0
  8  9  1  0
  9 10  1  0
  9 11  2  0
  2 12  1  0
 12 13  1  0
 13 14  1  0
 14 15  1  0
 15 16  1  0
 16 17  1  0
 17 18  1  0
 18 19  1  6
 19 20  2  0
 16 21  1  0
 16 22  1  0
 11  4  1  0
 18 11  1  0
M  END
>  <docking_score>  (1) 
-6.4729999999999999

$$$$

     RDKit          3D

 22 23  0  0  0  0  0  0  0  0999 V2000
  127.9761  124.4786  142.7749 O   0  0  0  0  0  0  0  0  0  0  0  0
  128.8223  125.4241  142.8600 C   0  0  0  0  0  0  0  0  0  0  0  0
  129.9684  125.1755  143.6108 N   0  0  0  0  0  0  0  0  0  0  0  0
  131.3195  125.4811  143.3184 C   0  0  0  0  0  0  0  0  0  0  0  0
  132.0980  126.0207  144.3255 C   0  0  0  0  0  0  0  0  0  0  0  0
  133.4166  126.3599  144.1766 C   0  0  0  0  0  0  0  0  0  0  0  0
  134.3758  127.0426  145.4748 Cl  0  0  0  0  0  0  0  0  0  0  0  0
  134.0142  126.1601  142.9679 C   0  0  0  0  0  0  0  0  0  0  0  0
  133.2737  125.6236  141.9352 C   0  0  0  0  0  0  0  0  0  0  0  0
  134.0932  125.3881  140.4050 Cl  0  0  0  0  0  0  0  0  0  0  0  0
  131.9244  125.2792  142.0965 C   0  0  0  0  0  0  0  0  0  0  0  0
  128.5115  126.6308  142.1832 N   0  0  0  0  0  0  0  0  0  0  0  0
  129.5599  127.5248  141.6662 C   0  0  0  0  0  0  0  0  0  0  0  0
  128.9184  128.3076  140.5395 C   0  0  0  0  0  0  0  0  0  0  0  0
  129.5949  128.0691  139.2136 C   0  0  0  0  0  0  0  0  0  0  0  0
  130.8182  126.8331  139.3981 S   0  0  0  0  0  0  0  0  0  0  0  0
  130.2522  125.5616  140.2659 C   0  0  0  0  0  0  0  0  0  0  0  0
  131.2731  124.7206  140.9113 C   0  0  1  0  0  0  0  0  0  0  0  0
  132.2298  124.0841  140.0029 C   0  0  0  0  0  0  0  0  0  0  0  0
  132.0107  123.0966  139.3319 O   0  0  0  0  0  0  0  0  0  0  0  0
  132.0053  127.8982  140.8815 F   0  0  0  0  0  0  0  0  0  0  0  0
  132.0338  126.7796  138.2355 F   0  0  0  0  0  0  0  0  0  0  0  0
  1  2  2  0
  2  3  1  0
  3  4  1  0
  4  5  2  0
  5  6  1  0
  6  7  1  0
  6  8  2  0
  8  9  1  0
  9 10  1  0
  9 11  2  0
  2 12  1  0
 12 13  1  0
 13 14  1  0
 14 15  1  0
 15 16  1  0
 16 17  1  0
 17 18  1  0
 18 19  1  6
 19 20  2  0
 16 21  1  0
 16 22  1  0
 11  4  1  0
 18 11  1  0
M  END
>  <docking_score>  (2) 
-6.1680000000000001

$$$$
