
     RDKit          3D

 20 21  0  0  0  0  0  0  0  0999 V2000
  136.5810  119.0497  136.1423 O   0  0  0  0  0  0  0  0  0  0  0  0
  136.7563  117.8515  136.4285 C   0  0  0  0  0  0  0  0  0  0  0  0
  136.7456  117.5739  137.8487 N   0  0  0  0  0  0  0  0  0  0  0  0
  136.5486  118.6113  138.7959 C   0  0  0  0  0  0  0  0  0  0  0  0
  135.2703  119.0103  139.1157 C   0  0  0  0  0  0  0  0  0  0  0  0
  135.0214  120.0185  140.0341 C   0  0  0  0  0  0  0  0  0  0  0  0
  133.3993  120.5177  140.4333 Cl  0  0  0  0  0  0  0  0  0  0  0  0
  136.1009  120.6287  140.6357 C   0  0  0  0  0  0  0  0  0  0  0  0
  137.3916  120.2644  140.3483 C   0  0  0  0  0  0  0  0  0  0  0  0
  138.4412  120.8742  140.9484 F   0  0  0  0  0  0  0  0  0  0  0  0
  137.6027  119.2434  139.4167 C   0  0  0  0  0  0  0  0  0  0  0  0
  136.9438  116.8788  135.4709 N   0  0  0  0  0  0  0  0  0  0  0  0
  136.9820  116.9833  134.0632 C   0  0  0  0  0  0  0  0  0  0  0  0
  135.6700  117.1454  133.3546 C   0  0  0  0  0  0  0  0  0  0  0  0
  135.8587  117.9522  132.1204 C   0  0  0  0  0  0  0  0  0  0  0  0
  137.4059  117.1364  131.5867 S   0  0  1  0  0  0  0  0  0  0  0  0
  138.0279  116.9368  133.3101 C   0  0  0  0  0  0  0  0  0  0  0  0
  139.4475  116.7724  133.5627 C   0  0  0  0  0  0  0  0  0  0  0  0
  140.0181  115.6604  133.5139 O   0  0  0  0  0  0  0  0  0  0  0  0
  137.2462  115.5577  130.6948 Cl  0  0  0  0  0  0  0  0  0  0  0  0
  1  2  2  0
  2  3  1  0
  3  4  1  0
  4  5  2  0
  5  6  1  0
  6  7  1  0
  6  8  2  0
  8  9  1  0
  9 10  1  0
  9 11  2  0
  2 12  1  0
 12 13  1  0
 13 14  1  0
 14 15  1  0
 15 16  1  0
 16 17  1  0
 17 18  1  0
 18 19  2  0
 16 20  1  1
 11  4  1  0
 13 17  2  0
M  END
>  <docking_score>  (1) 
-7.077

$$$$

     RDKit          3D

 20 21  0  0  0  0  0  0  0  0999 V2000
  137.0100  119.3404  137.7140 O   0  0  0  0  0  0  0  0  0  0  0  0
  136.7972  118.4366  138.5423 C   0  0  0  0  0  0  0  0  0  0  0  0
  136.2124  118.8963  139.7836 N   0  0  0  0  0  0  0  0  0  0  0  0
  135.9239  120.2693  139.9926 C   0  0  0  0  0  0  0  0  0  0  0  0
  134.6236  120.7143  139.9105 C   0  0  0  0  0  0  0  0  0  0  0  0
  134.2865  122.0447  140.1059 C   0  0  0  0  0  0  0  0  0  0  0  0
  132.6371  122.5996  140.0000 Cl  0  0  0  0  0  0  0  0  0  0  0  0
  135.2993  122.9352  140.3906 C   0  0  0  0  0  0  0  0  0  0  0  0
  136.6088  122.5376  140.4822 C   0  0  0  0  0  0  0  0  0  0  0  0
  137.5919  123.4254  140.7628 F   0  0  0  0  0  0  0  0  0  0  0  0
  136.9096  121.1873  140.2788 C   0  0  0  0  0  0  0  0  0  0  0  0
  137.0952  117.1148  138.2926 N   0  0  0  0  0  0  0  0  0  0  0  0
  137.6617  116.5103  137.1490 C   0  0  0  0  0  0  0  0  0  0  0  0
  139.0366  115.9287  137.2941 C   0  0  0  0  0  0  0  0  0  0  0  0
  139.1890  114.7601  136.3880 C   0  0  0  0  0  0  0  0  0  0  0  0
  138.3666  115.5226  134.9436 S   0  0  1  0  0  0  0  0  0  0  0  0
  137.1306  116.4172  135.9775 C   0  0  0  0  0  0  0  0  0  0  0  0
  135.8696  116.8490  135.4032 C   0  0  0  0  0  0  0  0  0  0  0  0
  134.9329  117.3050  136.0955 O   0  0  0  0  0  0  0  0  0  0  0  0
  139.3710  116.6314  133.9067 Cl  0  0  0  0  0  0  0  0  0  0  0  0
  1  2  2  0
  2  3  1  0
  3  4  1  0
  4  5  2  0
  5  6  1  0
  6  7  1  0
  6  8  2  0
  8  9  1  0
  9 10  1  0
  9 11  2  0
  2 12  1  0
 12 13  1  0
 13 14  1  0
 14 15  1  0
 15 16  1  0
 16 17  1  0
 17 18  1  0
 18 19  2  0
 16 20  1  1
 11  4  1  0
 13 17  2  0
M  END
>  <docking_score>  (2) 
-6.5739999999999998

$$$$
