
     RDKit          3D

 21 23  0  0  0  0  0  0  0  0999 V2000
  135.4076  125.2879  137.6615 O   0  0  0  0  0  0  0  0  0  0  0  0
  134.7180  125.3982  138.7061 C   0  0  0  0  0  0  0  0  0  0  0  0
  134.0101  126.6168  138.8922 N   0  0  0  0  0  0  0  0  0  0  0  0
  134.0884  127.6671  137.9140 C   0  0  0  0  0  0  0  0  0  0  0  0
  133.2164  127.6133  136.8399 C   0  0  0  0  0  0  0  0  0  0  0  0
  133.2011  128.5493  135.8442 C   0  0  0  0  0  0  0  0  0  0  0  0
  132.0847  128.4741  134.4854 Cl  0  0  0  0  0  0  0  0  0  0  0  0
  134.1032  129.5854  135.9317 C   0  0  0  0  0  0  0  0  0  0  0  0
  134.9967  129.6781  136.9943 C   0  0  0  0  0  0  0  0  0  0  0  0
  136.1053  131.0137  137.0419 Cl  0  0  0  0  0  0  0  0  0  0  0  0
  134.9579  128.6996  137.9643 C   0  0  0  0  0  0  0  0  0  0  0  0
  134.7027  124.3067  139.6075 N   0  0  0  0  0  0  0  0  0  0  0  0
  135.4695  123.1138  139.3205 C   0  0  2  0  0  0  0  0  0  0  0  0
  134.6467  121.9209  139.7422 C   0  0  0  0  0  0  0  0  0  0  0  0
  135.7305  120.8966  140.0448 C   0  0  0  0  0  0  0  0  0  0  0  0
  136.1110  119.2445  140.1710 S   0  0  0  0  0  0  0  0  0  0  0  0
  137.9044  119.4996  140.6592 N   0  0  0  0  0  0  0  0  0  0  0  0
  137.9314  120.7048  140.6510 C   0  0  0  0  0  0  0  0  0  0  0  0
  136.9152  121.5396  140.3613 C   0  0  0  0  0  0  0  0  0  0  0  0
  136.6312  122.9797  140.2574 C   0  0  0  0  0  0  0  0  0  0  0  0
  137.1830  123.9646  140.7949 O   0  0  0  0  0  0  0  0  0  0  0  0
  1  2  2  0
  2  3  1  0
  3  4  1  0
  4  5  2  0
  5  6  1  0
  6  7  1  0
  6  8  2  0
  8  9  1  0
  9 10  1  0
  9 11  2  0
  2 12  1  0
 13 12  1  1
 13 14  1  0
 14 15  1  0
 15 16  1  0
 16 17  1  0
 17 18  2  0
 18 19  1  0
 19 20  1  0
 20 21  2  0
 11  4  1  0
 20 13  1  0
 15 19  2  0
M  END
>  <docking_score>  (1) 
-6.468

$$$$

     RDKit          3D

 21 23  0  0  0  0  0  0  0  0999 V2000
  145.8341  135.9158  138.0951 O   0  0  0  0  0  0  0  0  0  0  0  0
  144.8654  136.5611  138.5685 C   0  0  0  0  0  0  0  0  0  0  0  0
  143.5914  136.3509  137.9739 N   0  0  0  0  0  0  0  0  0  0  0  0
  143.4355  135.4317  136.8799 C   0  0  0  0  0  0  0  0  0  0  0  0
  142.8465  134.2074  137.1463 C   0  0  0  0  0  0  0  0  0  0  0  0
  142.6513  133.2501  136.1905 C   0  0  0  0  0  0  0  0  0  0  0  0
  141.8969  131.6984  136.5388 Cl  0  0  0  0  0  0  0  0  0  0  0  0
  143.0675  133.5362  134.9098 C   0  0  0  0  0  0  0  0  0  0  0  0
  143.6634  134.7543  134.5986 C   0  0  0  0  0  0  0  0  0  0  0  0
  144.1617  135.0485  132.9615 Cl  0  0  0  0  0  0  0  0  0  0  0  0
  143.8297  135.6748  135.6109 C   0  0  0  0  0  0  0  0  0  0  0  0
  145.1201  137.4402  139.6485 N   0  0  0  0  0  0  0  0  0  0  0  0
  146.4617  137.5825  140.1714 C   0  0  2  0  0  0  0  0  0  0  0  0
  146.4864  136.9804  141.5552 C   0  0  0  0  0  0  0  0  0  0  0  0
  147.6143  137.7663  142.2077 C   0  0  0  0  0  0  0  0  0  0  0  0
  148.7957  137.7824  143.4301 S   0  0  0  0  0  0  0  0  0  0  0  0
  149.4681  139.4856  143.0216 N   0  0  0  0  0  0  0  0  0  0  0  0
  148.7466  139.7545  142.0940 C   0  0  0  0  0  0  0  0  0  0  0  0
  147.7695  138.9875  141.5741 C   0  0  0  0  0  0  0  0  0  0  0  0
  146.7652  139.0129  140.4988 C   0  0  0  0  0  0  0  0  0  0  0  0
  146.2168  139.9713  139.9122 O   0  0  0  0  0  0  0  0  0  0  0  0
  1  2  2  0
  2  3  1  0
  3  4  1  0
  4  5  2  0
  5  6  1  0
  6  7  1  0
  6  8  2  0
  8  9  1  0
  9 10  1  0
  9 11  2  0
  2 12  1  0
 13 12  1  1
 13 14  1  0
 14 15  1  0
 15 16  1  0
 16 17  1  0
 17 18  2  0
 18 19  1  0
 19 20  1  0
 20 21  2  0
 11  4  1  0
 20 13  1  0
 15 19  2  0
M  END
>  <docking_score>  (2) 
-6.3209999999999997

$$$$

     RDKit          3D

 21 23  0  0  0  0  0  0  0  0999 V2000
  130.0308  138.5552  139.4113 O   0  0  0  0  0  0  0  0  0  0  0  0
  130.2941  138.1455  140.5696 C   0  0  0  0  0  0  0  0  0  0  0  0
  130.7395  136.8016  140.6983 N   0  0  0  0  0  0  0  0  0  0  0  0
  130.8806  135.9619  139.5403 C   0  0  0  0  0  0  0  0  0  0  0  0
  129.7512  135.3084  139.0771 C   0  0  0  0  0  0  0  0  0  0  0  0
  129.7624  134.4792  137.9908 C   0  0  0  0  0  0  0  0  0  0  0  0
  128.3196  133.6568  137.4072 Cl  0  0  0  0  0  0  0  0  0  0  0  0
  130.9627  134.2982  137.3414 C   0  0  0  0  0  0  0  0  0  0  0  0
  132.1215  134.9361  137.7730 C   0  0  0  0  0  0  0  0  0  0  0  0
  133.6001  134.6639  136.9044 Cl  0  0  0  0  0  0  0  0  0  0  0  0
  132.0390  135.7590  138.8756 C   0  0  0  0  0  0  0  0  0  0  0  0
  130.1263  139.0498  141.6458 N   0  0  0  0  0  0  0  0  0  0  0  0
  129.6581  140.3965  141.3997 C   0  0  2  0  0  0  0  0  0  0  0  0
  130.8500  141.3204  141.4617 C   0  0  0  0  0  0  0  0  0  0  0  0
  130.1972  142.6298  141.8798 C   0  0  0  0  0  0  0  0  0  0  0  0
  130.3181  144.3256  141.8829 S   0  0  0  0  0  0  0  0  0  0  0  0
  128.7145  144.6284  142.8083 N   0  0  0  0  0  0  0  0  0  0  0  0
  128.3658  143.4843  142.9586 C   0  0  0  0  0  0  0  0  0  0  0  0
  129.0098  142.3763  142.5451 C   0  0  0  0  0  0  0  0  0  0  0  0
  128.8618  140.9122  142.5595 C   0  0  0  0  0  0  0  0  0  0  0  0
  128.2280  140.1603  143.3316 O   0  0  0  0  0  0  0  0  0  0  0  0
  1  2  2  0
  2  3  1  0
  3  4  1  0
  4  5  2  0
  5  6  1  0
  6  7  1  0
  6  8  2  0
  8  9  1  0
  9 10  1  0
  9 11  2  0
  2 12  1  0
 13 12  1  1
 13 14  1  0
 14 15  1  0
 15 16  1  0
 16 17  1  0
 17 18  2  0
 18 19  1  0
 19 20  1  0
 20 21  2  0
 11  4  1  0
 20 13  1  0
 15 19  2  0
M  END
>  <docking_score>  (3) 
-6.2220000000000004

$$$$
