
     RDKit          3D

 11 11  0  0  0  0  0  0  0  0999 V2000
  136.9608  115.3677  130.9104 O   0  0  0  0  0  0  0  0  0  0  0  0
  137.6069  116.4133  131.1115 C   0  0  0  0  0  0  0  0  0  0  0  0
  137.2792  117.1838  132.2853 N   0  0  0  0  0  0  0  0  0  0  0  0
  135.9938  116.9813  132.8631 C   0  0  0  0  0  0  0  0  0  0  0  0
  135.6740  117.1188  134.1452 C   0  0  0  0  0  0  0  0  0  0  0  0
  136.5207  117.5015  135.2753 C   0  0  0  0  0  0  0  0  0  0  0  0
  135.9561  117.6503  136.4652 C   0  0  0  0  0  0  0  0  0  0  0  0
  134.6263  117.4457  136.5975 F   0  0  0  0  0  0  0  0  0  0  0  0
  138.2979  118.0712  132.7348 C   0  0  0  0  0  0  0  0  0  0  0  0
  138.6339  117.9634  134.1556 C   0  0  0  0  0  0  0  0  0  0  0  0
  137.9218  117.7316  135.2057 N   0  0  0  0  0  0  0  0  0  0  0  0
  1  2  2  0
  2  3  1  0
  3  4  1  0
  4  5  2  0
  5  6  1  0
  6  7  2  3
  7  8  1  0
  3  9  1  0
  9 10  1  0
 10 11  2  0
 11  6  1  0
M  END
>  <docking_score>  (1) 
-4.2530000000000001

$$$$

     RDKit          3D

 11 11  0  0  0  0  0  0  0  0999 V2000
  117.5500  119.6427  151.6691 O   0  0  0  0  0  0  0  0  0  0  0  0
  117.3965  118.6180  150.9782 C   0  0  0  0  0  0  0  0  0  0  0  0
  117.9604  118.6183  149.6511 N   0  0  0  0  0  0  0  0  0  0  0  0
  117.5691  117.5676  148.7737 C   0  0  0  0  0  0  0  0  0  0  0  0
  117.4939  117.6320  147.4489 C   0  0  0  0  0  0  0  0  0  0  0  0
  117.7811  118.7569  146.5584 C   0  0  0  0  0  0  0  0  0  0  0  0
  117.7096  118.5601  145.2496 C   0  0  0  0  0  0  0  0  0  0  0  0
  117.3763  117.3364  144.7811 F   0  0  0  0  0  0  0  0  0  0  0  0
  118.8572  119.6882  149.3712 C   0  0  0  0  0  0  0  0  0  0  0  0
  118.5759  120.4295  148.1405 C   0  0  0  0  0  0  0  0  0  0  0  0
  118.1365  120.0658  146.9837 N   0  0  0  0  0  0  0  0  0  0  0  0
  1  2  2  0
  2  3  1  0
  3  4  1  0
  4  5  2  0
  5  6  1  0
  6  7  2  3
  7  8  1  0
  3  9  1  0
  9 10  1  0
 10 11  2  0
 11  6  1  0
M  END
>  <docking_score>  (2) 
-3.6579999999999999

$$$$
