
     RDKit          3D

 11 11  0  0  0  0  0  0  0  0999 V2000
  121.8180  126.9949  141.2945 O   0  0  0  0  0  0  0  0  0  0  0  0
  122.4639  126.8998  142.3703 C   0  0  0  0  0  0  0  0  0  0  0  0
  122.2577  125.7141  143.1694 N   0  0  0  0  0  0  0  0  0  0  0  0
  121.4477  124.6918  142.5940 C   0  0  0  0  0  0  0  0  0  0  0  0
  121.5542  123.3894  142.8173 C   0  0  0  0  0  0  0  0  0  0  0  0
  122.5098  122.6732  143.6938 C   0  0  0  0  0  0  0  0  0  0  0  0
  122.2439  121.4322  143.9804 C   0  0  0  0  0  0  0  0  0  0  0  0
  123.0635  120.7255  144.7661 F   0  0  0  0  0  0  0  0  0  0  0  0
  122.8890  125.6819  144.4675 C   0  0  0  0  0  0  0  0  0  0  0  0
  123.8212  124.5395  144.5361 C   0  0  0  0  0  0  0  0  0  0  0  0
  123.6910  123.2894  144.2239 N   0  0  0  0  0  0  0  0  0  0  0  0
  1  2  2  0
  2  3  1  0
  3  4  1  0
  4  5  2  0
  5  6  1  0
  6  7  2  3
  7  8  1  0
  3  9  1  0
  9 10  1  0
 10 11  2  0
 11  6  1  0
M  END
>  <docking_score>  (1) 
-4.5549999999999997

$$$$
