
     RDKit          3D

 29 32  0  0  0  0  0  0  0  0999 V2000
  140.2316  134.3090  139.1395 O   0  0  0  0  0  0  0  0  0  0  0  0
  141.2330  134.8716  138.5924 C   0  0  0  0  0  0  0  0  0  0  0  0
  142.2067  135.3660  139.5045 N   0  0  0  0  0  0  0  0  0  0  0  0
  142.0334  135.2076  140.9378 C   0  0  1  0  0  0  0  0  0  0  0  0
  143.0016  134.4129  141.7334 C   0  0  0  0  0  0  0  0  0  0  0  0
  143.1174  135.8942  141.7854 C   0  0  1  0  0  0  0  0  0  0  0  0
  144.2037  136.6271  141.1037 C   0  0  0  0  0  0  0  0  0  0  0  0
  143.9730  137.9051  140.6072 C   0  0  0  0  0  0  0  0  0  0  0  0
  144.9396  138.6237  139.9728 C   0  0  0  0  0  0  0  0  0  0  0  0
  146.1956  138.1064  139.7965 C   0  0  0  0  0  0  0  0  0  0  0  0
  146.4567  136.8283  140.2837 C   0  0  0  0  0  0  0  0  0  0  0  0
  145.4732  136.1246  140.9170 C   0  0  0  0  0  0  0  0  0  0  0  0
  141.3062  134.9612  137.1850 N   0  0  0  0  0  0  0  0  0  0  0  0
  140.2991  134.4738  136.2829 C   0  0  0  0  0  0  0  0  0  0  0  0
  140.4967  133.1173  135.8710 C   0  0  1  0  0  0  0  0  0  0  0  0
  139.9774  131.9242  136.5671 C   0  0  1  0  0  0  0  0  0  0  0  0
  138.5059  132.0554  136.8429 C   0  0  0  0  0  0  0  0  0  0  0  0
  137.5417  132.3655  135.9328 N   0  0  0  0  0  0  0  0  0  0  0  0
  136.3691  132.3890  136.5251 C   0  0  0  0  0  0  0  0  0  0  0  0
  135.0478  132.7011  135.9231 C   0  0  0  0  0  0  0  0  0  0  0  0
  134.4032  133.6865  136.4316 C   0  0  0  0  0  0  0  0  0  0  0  0
  133.1500  134.2960  136.1590 C   0  0  0  0  0  0  0  0  0  0  0  0
  131.9966  133.8148  136.6985 C   0  0  0  0  0  0  0  0  0  0  0  0
  132.1732  132.6490  137.5543 C   0  0  0  0  0  0  0  0  0  0  0  0
  132.2974  131.7500  138.2326 N   0  0  0  0  0  0  0  0  0  0  0  0
  136.5972  132.0876  137.8407 N   0  0  0  0  0  0  0  0  0  0  0  0
  137.8702  131.9029  137.9621 O   0  0  0  0  0  0  0  0  0  0  0  0
  140.1440  131.1602  135.2196 C   0  0  0  0  0  0  0  0  0  0  0  0
  140.2704  132.5476  134.5399 C   0  0  0  0  0  0  0  0  0  0  0  0
  1  2  2  0
  2  3  1  0
  4  3  1  6
  4  5  1  0
  5  6  1  0
  6  7  1  6
  7  8  2  0
  8  9  1  0
  9 10  2  0
 10 11  1  0
 11 12  2  0
  2 13  1  0
 13 14  1  0
 15 14  1  6
 15 16  1  0
 16 17  1  6
 17 18  2  0
 18 19  1  0
 19 20  1  0
 20 21  2  3
 21 22  1  0
 22 23  2  3
 23 24  1  0
 24 25  3  0
 19 26  2  0
 26 27  1  0
 16 28  1  0
 28 29  1  0
  6  4  1  0
 12  7  1  0
 29 15  1  0
 27 17  1  0
M  END
>  <docking_score>  (1) 
-7.5970000000000004

$$$$

     RDKit          3D

 29 32  0  0  0  0  0  0  0  0999 V2000
  142.9802  135.6495  137.5070 O   0  0  0  0  0  0  0  0  0  0  0  0
  143.7630  136.3677  136.8070 C   0  0  0  0  0  0  0  0  0  0  0  0
  144.0065  135.8736  135.4951 N   0  0  0  0  0  0  0  0  0  0  0  0
  143.3798  134.6479  135.0322 C   0  0  1  0  0  0  0  0  0  0  0  0
  143.4222  134.2719  133.5973 C   0  0  0  0  0  0  0  0  0  0  0  0
  144.3679  133.5876  134.5181 C   0  0  1  0  0  0  0  0  0  0  0  0
  145.8141  133.8878  134.5331 C   0  0  0  0  0  0  0  0  0  0  0  0
  146.5775  133.5675  135.6502 C   0  0  0  0  0  0  0  0  0  0  0  0
  147.9133  133.8212  135.7146 C   0  0  0  0  0  0  0  0  0  0  0  0
  148.5661  134.4115  134.6649 C   0  0  0  0  0  0  0  0  0  0  0  0
  147.8277  134.7434  133.5320 C   0  0  0  0  0  0  0  0  0  0  0  0
  146.4889  134.4803  133.4879 C   0  0  0  0  0  0  0  0  0  0  0  0
  144.3089  137.5497  137.3535 N   0  0  0  0  0  0  0  0  0  0  0  0
  144.0662  138.0186  138.6903 C   0  0  0  0  0  0  0  0  0  0  0  0
  145.0509  137.5983  139.6403 C   0  0  1  0  0  0  0  0  0  0  0  0
  144.8065  137.3371  141.0719 C   0  0  1  0  0  0  0  0  0  0  0  0
  143.6371  136.4125  141.2622 C   0  0  0  0  0  0  0  0  0  0  0  0
  142.3621  136.7809  141.5669 N   0  0  0  0  0  0  0  0  0  0  0  0
  141.6038  135.7113  141.6525 C   0  0  0  0  0  0  0  0  0  0  0  0
  140.1578  135.6408  141.9833 C   0  0  0  0  0  0  0  0  0  0  0  0
  139.4869  134.6984  141.4293 C   0  0  0  0  0  0  0  0  0  0  0  0
  138.1276  134.2904  141.4772 C   0  0  0  0  0  0  0  0  0  0  0  0
  137.7254  133.1043  140.9439 C   0  0  0  0  0  0  0  0  0  0  0  0
  138.7958  132.3233  140.3382 C   0  0  0  0  0  0  0  0  0  0  0  0
  139.6204  131.6994  139.8750 N   0  0  0  0  0  0  0  0  0  0  0  0
  142.4186  134.6414  141.3971 N   0  0  0  0  0  0  0  0  0  0  0  0
  143.5983  135.1199  141.1759 O   0  0  0  0  0  0  0  0  0  0  0  0
  146.1016  136.4715  141.0562 C   0  0  0  0  0  0  0  0  0  0  0  0
  145.9997  136.4892  139.5096 C   0  0  0  0  0  0  0  0  0  0  0  0
  1  2  2  0
  2  3  1  0
  4  3  1  6
  4  5  1  0
  5  6  1  0
  6  7  1  6
  7  8  2  0
  8  9  1  0
  9 10  2  0
 10 11  1  0
 11 12  2  0
  2 13  1  0
 13 14  1  0
 15 14  1  6
 15 16  1  0
 16 17  1  6
 17 18  2  0
 18 19  1  0
 19 20  1  0
 20 21  2  3
 21 22  1  0
 22 23  2  3
 23 24  1  0
 24 25  3  0
 19 26  2  0
 26 27  1  0
 16 28  1  0
 28 29  1  0
  6  4  1  0
 12  7  1  0
 29 15  1  0
 27 17  1  0
M  END
>  <docking_score>  (2) 
-7.4269999999999996

$$$$

     RDKit          3D

 29 32  0  0  0  0  0  0  0  0999 V2000
  135.3129  118.0065  137.9807 O   0  0  0  0  0  0  0  0  0  0  0  0
  136.1043  119.0015  137.9356 C   0  0  0  0  0  0  0  0  0  0  0  0
  135.8048  120.0396  138.8613 N   0  0  0  0  0  0  0  0  0  0  0  0
  134.6808  119.9231  139.7737 C   0  0  1  0  0  0  0  0  0  0  0  0
  134.8732  120.0884  141.2357 C   0  0  0  0  0  0  0  0  0  0  0  0
  134.3020  121.2350  140.4810 C   0  0  1  0  0  0  0  0  0  0  0  0
  135.0795  122.4569  140.1906 C   0  0  0  0  0  0  0  0  0  0  0  0
  134.5932  123.3885  139.2803 C   0  0  0  0  0  0  0  0  0  0  0  0
  135.2691  124.5309  138.9783 C   0  0  0  0  0  0  0  0  0  0  0  0
  136.4731  124.8098  139.5689 C   0  0  0  0  0  0  0  0  0  0  0  0
  136.9856  123.8953  140.4854 C   0  0  0  0  0  0  0  0  0  0  0  0
  136.2916  122.7557  140.7741 C   0  0  0  0  0  0  0  0  0  0  0  0
  137.1751  119.0061  137.0150 N   0  0  0  0  0  0  0  0  0  0  0  0
  137.4459  117.9549  136.0730 C   0  0  0  0  0  0  0  0  0  0  0  0
  136.7600  118.1028  134.8256 C   0  0  1  0  0  0  0  0  0  0  0  0
  137.3956  118.1309  133.4941 C   0  0  1  0  0  0  0  0  0  0  0  0
  138.3238  116.9631  133.3119 C   0  0  0  0  0  0  0  0  0  0  0  0
  138.1157  115.8897  132.5003 N   0  0  0  0  0  0  0  0  0  0  0  0
  139.1365  115.0671  132.5889 C   0  0  0  0  0  0  0  0  0  0  0  0
  139.3238  113.7661  131.8975 C   0  0  0  0  0  0  0  0  0  0  0  0
  138.4967  112.8324  132.1963 C   0  0  0  0  0  0  0  0  0  0  0  0
  138.3294  111.4863  131.7764 C   0  0  0  0  0  0  0  0  0  0  0  0
  137.5075  111.1651  130.7399 C   0  0  0  0  0  0  0  0  0  0  0  0
  136.8385  112.3050  130.1270 C   0  0  0  0  0  0  0  0  0  0  0  0
  136.3216  113.1835  129.6324 N   0  0  0  0  0  0  0  0  0  0  0  0
  140.0099  115.6330  133.4780 N   0  0  0  0  0  0  0  0  0  0  0  0
  139.4748  116.7433  133.8658 O   0  0  0  0  0  0  0  0  0  0  0  0
  136.0079  117.7335  132.9081 C   0  0  0  0  0  0  0  0  0  0  0  0
  135.5977  117.3463  134.3518 C   0  0  0  0  0  0  0  0  0  0  0  0
  1  2  2  0
  2  3  1  0
  4  3  1  6
  4  5  1  0
  5  6  1  0
  6  7  1  6
  7  8  2  0
  8  9  1  0
  9 10  2  0
 10 11  1  0
 11 12  2  0
  2 13  1  0
 13 14  1  0
 15 14  1  1
 15 16  1  0
 16 17  1  1
 17 18  2  0
 18 19  1  0
 19 20  1  0
 20 21  2  3
 21 22  1  0
 22 23  2  3
 23 24  1  0
 24 25  3  0
 19 26  2  0
 26 27  1  0
 16 28  1  0
 28 29  1  0
  6  4  1  0
 12  7  1  0
 29 15  1  0
 27 17  1  0
M  END
>  <docking_score>  (3) 
-7.3810000000000002

$$$$
