
     RDKit          3D

 11 11  0  0  0  0  0  0  0  0999 V2000
  144.3713  131.9851  135.3537 O   0  0  0  0  0  0  0  0  0  0  0  0
  143.3057  132.1221  135.9940 C   0  0  0  0  0  0  0  0  0  0  0  0
  142.1523  132.7152  135.4158 N   0  0  0  0  0  0  0  0  0  0  0  0
  140.9912  131.8994  135.3413 C   0  0  0  0  0  0  0  0  0  0  0  0
  139.9160  132.0620  134.5898 C   0  0  0  0  0  0  0  0  0  0  0  0
  139.6874  133.1493  133.6474 C   0  0  0  0  0  0  0  0  0  0  0  0
  138.4402  133.3976  133.2519 C   0  0  0  0  0  0  0  0  0  0  0  0
  137.4722  132.6047  133.7676 F   0  0  0  0  0  0  0  0  0  0  0  0
  142.3430  134.0821  134.9857 C   0  0  0  0  0  0  0  0  0  0  0  0
  141.7782  134.3751  133.6705 C   0  0  0  0  0  0  0  0  0  0  0  0
  140.6869  134.0123  133.0776 N   0  0  0  0  0  0  0  0  0  0  0  0
  1  2  2  0
  2  3  1  0
  3  4  1  0
  4  5  2  0
  5  6  1  0
  6  7  2  3
  7  8  1  0
  3  9  1  0
  9 10  1  0
 10 11  2  0
 11  6  1  0
M  END
>  <docking_score>  (1) 
-4.4349999999999996

$$$$

     RDKit          3D

 11 11  0  0  0  0  0  0  0  0999 V2000
  136.3932  118.4932  139.6578 O   0  0  0  0  0  0  0  0  0  0  0  0
  136.6803  119.3902  140.4808 C   0  0  0  0  0  0  0  0  0  0  0  0
  135.9012  120.5705  140.6085 N   0  0  0  0  0  0  0  0  0  0  0  0
  134.5030  120.4316  140.3967 C   0  0  0  0  0  0  0  0  0  0  0  0
  133.6111  121.3716  140.1358 C   0  0  0  0  0  0  0  0  0  0  0  0
  133.8835  122.7969  140.0059 C   0  0  0  0  0  0  0  0  0  0  0  0
  132.8692  123.6522  140.1210 C   0  0  0  0  0  0  0  0  0  0  0  0
  131.6484  123.1161  140.3531 F   0  0  0  0  0  0  0  0  0  0  0  0
  136.6667  121.7511  140.9406 C   0  0  0  0  0  0  0  0  0  0  0  0
  136.2979  122.9347  140.1676 C   0  0  0  0  0  0  0  0  0  0  0  0
  135.1635  123.4047  139.7596 N   0  0  0  0  0  0  0  0  0  0  0  0
  1  2  2  0
  2  3  1  0
  3  4  1  0
  4  5  2  0
  5  6  1  0
  6  7  2  3
  7  8  1  0
  3  9  1  0
  9 10  1  0
 10 11  2  0
 11  6  1  0
M  END
>  <docking_score>  (2) 
-4.4020000000000001

$$$$
