
     RDKit          3D

 21 23  0  0  0  0  0  0  0  0999 V2000
  121.9228  128.0139  139.9596 O   0  0  0  0  0  0  0  0  0  0  0  0
  121.8554  126.8492  140.4218 C   0  0  0  0  0  0  0  0  0  0  0  0
  123.0355  126.3674  141.0576 N   0  0  0  0  0  0  0  0  0  0  0  0
  123.2543  125.3664  142.0764 C   0  0  0  0  0  0  0  0  0  0  0  0
  124.4293  125.6563  142.6950 C   0  0  0  0  0  0  0  0  0  0  0  0
  124.8594  124.8350  143.7169 C   0  0  0  0  0  0  0  0  0  0  0  0
  126.3829  125.1632  144.5597 Cl  0  0  0  0  0  0  0  0  0  0  0  0
  124.0920  123.7456  144.0851 C   0  0  0  0  0  0  0  0  0  0  0  0
  122.8963  123.4268  143.4762 C   0  0  0  0  0  0  0  0  0  0  0  0
  122.1353  122.3602  143.8298 F   0  0  0  0  0  0  0  0  0  0  0  0
  122.4893  124.2783  142.4453 C   0  0  0  0  0  0  0  0  0  0  0  0
  120.5997  126.2243  140.2208 N   0  0  0  0  0  0  0  0  0  0  0  0
  119.8343  125.0723  140.3812 C   0  0  1  0  0  0  0  0  0  0  0  0
  119.1741  124.7037  139.0444 C   0  0  0  0  0  0  0  0  0  0  0  0
  119.8373  123.4357  138.5834 C   0  0  1  0  0  0  0  0  0  0  0  0
  120.9952  123.2296  139.5405 C   0  0  0  0  0  0  0  0  0  0  0  0
  120.4213  123.8183  140.8018 C   0  0  1  0  0  0  0  0  0  0  0  0
  121.2226  123.7207  141.9883 C   0  0  0  0  0  0  0  0  0  0  0  0
  120.6927  122.9528  142.8628 O   0  0  0  0  0  0  0  0  0  0  0  0
  118.9051  122.2410  138.7987 C   0  0  0  0  0  0  0  0  0  0  0  0
  117.6231  122.7253  138.5395 F   0  0  0  0  0  0  0  0  0  0  0  0
  1  2  2  0
  2  3  1  0
  3  4  1  0
  4  5  2  0
  5  6  1  0
  6  7  1  0
  6  8  2  0
  8  9  1  0
  9 10  1  0
  9 11  2  0
  2 12  1  0
 12 13  1  0
 13 14  1  6
 14 15  1  0
 15 16  1  0
 17 16  1  6
 17 18  1  0
 18 19  2  0
 15 20  1  1
 20 21  1  0
 11  4  1  0
 18 11  1  0
 17 13  1  0
M  END
>  <docking_score>  (1) 
-7.8579999999999997

$$$$

     RDKit          3D

 21 23  0  0  0  0  0  0  0  0999 V2000
  121.8851  121.2402  143.4729 O   0  0  0  0  0  0  0  0  0  0  0  0
  122.1980  122.4178  143.1729 C   0  0  0  0  0  0  0  0  0  0  0  0
  121.6850  122.8968  141.9334 N   0  0  0  0  0  0  0  0  0  0  0  0
  121.3975  124.2264  141.4462 C   0  0  0  0  0  0  0  0  0  0  0  0
  120.4618  124.1143  140.4668 C   0  0  0  0  0  0  0  0  0  0  0  0
  120.0189  125.2611  139.8405 C   0  0  0  0  0  0  0  0  0  0  0  0
  118.8005  125.1768  138.5568 Cl  0  0  0  0  0  0  0  0  0  0  0  0
  120.5324  126.4873  140.2200 C   0  0  0  0  0  0  0  0  0  0  0  0
  121.4819  126.6320  141.2097 C   0  0  0  0  0  0  0  0  0  0  0  0
  121.9924  127.8305  141.5902 F   0  0  0  0  0  0  0  0  0  0  0  0
  121.9093  125.4514  141.8240 C   0  0  0  0  0  0  0  0  0  0  0  0
  123.0144  123.0578  144.1381 N   0  0  0  0  0  0  0  0  0  0  0  0
  123.7266  124.2030  144.4846 C   0  0  1  0  0  0  0  0  0  0  0  0
  125.1478  123.8132  144.9167 C   0  0  0  0  0  0  0  0  0  0  0  0
  126.0694  124.3313  143.8478 C   0  0  1  0  0  0  0  0  0  0  0  0
  125.1525  124.8051  142.7369 C   0  0  0  0  0  0  0  0  0  0  0  0
  123.9644  125.2700  143.5364 C   0  0  1  0  0  0  0  0  0  0  0  0
  122.8917  125.8860  142.8090 C   0  0  0  0  0  0  0  0  0  0  0  0
  122.7669  127.1256  143.0971 O   0  0  0  0  0  0  0  0  0  0  0  0
  126.8028  125.5812  144.3400 C   0  0  0  0  0  0  0  0  0  0  0  0
  127.5482  126.0229  143.2471 F   0  0  0  0  0  0  0  0  0  0  0  0
  1  2  2  0
  2  3  1  0
  3  4  1  0
  4  5  2  0
  5  6  1  0
  6  7  1  0
  6  8  2  0
  8  9  1  0
  9 10  1  0
  9 11  2  0
  2 12  1  0
 12 13  1  0
 13 14  1  6
 14 15  1  0
 15 16  1  0
 17 16  1  6
 17 18  1  0
 18 19  2  0
 15 20  1  1
 20 21  1  0
 11  4  1  0
 18 11  1  0
 17 13  1  0
M  END
>  <docking_score>  (2) 
-7.4859999999999998

$$$$
