
     RDKit          3D

 25 26  0  0  0  0  0  0  0  0999 V2000
  147.5872  137.5884  142.3860 C   0  0  0  0  0  0  0  0  0  0  0  0
  146.3115  137.2802  141.6450 C   0  0  0  0  0  0  0  0  0  0  0  0
  146.2431  138.0724  140.3839 C   0  0  2  0  0  0  0  0  0  0  0  0
  146.8816  139.4473  140.5864 C   0  0  0  0  0  0  0  0  0  0  0  0
  144.8561  138.1950  139.8286 C   0  0  0  0  0  3  0  0  0  0  0  0
  143.9983  137.2428  140.5164 N   0  0  0  0  0  0  0  0  0  0  0  0
  143.2685  136.2688  139.7584 C   0  0  0  0  0  0  0  0  0  0  0  0
  143.4211  136.2999  138.5134 O   0  0  0  0  0  0  0  0  0  0  0  0
  142.4297  135.3401  140.4252 N   0  0  0  0  0  0  0  0  0  0  0  0
  142.6123  135.0888  141.8083 C   0  0  0  0  0  0  0  0  0  0  0  0
  142.0971  133.7875  142.3415 C   0  0  0  0  0  0  0  0  0  0  0  0
  141.0295  133.2664  141.4782 C   0  0  0  0  0  0  0  0  0  0  0  0
  141.3905  133.2241  140.0276 C   0  0  0  0  0  0  0  0  0  0  0  0
  141.4127  134.7005  139.5986 C   0  0  0  0  0  0  0  0  0  0  0  0
  139.6961  133.9883  141.7375 C   0  0  0  0  0  0  0  0  0  0  0  0
  139.1252  132.7194  141.3306 N   0  0  0  0  0  0  0  0  0  0  0  0
  137.9663  132.3237  140.6116 C   0  0  0  0  0  0  0  0  0  0  0  0
  136.8173  131.8382  141.4503 C   0  0  0  0  0  0  0  0  0  0  0  0
  138.2691  131.3486  139.4877 C   0  0  0  0  0  0  0  0  0  0  0  0
  140.2252  132.1050  141.9610 C   0  0  0  0  0  0  0  0  0  0  0  0
  140.5459  131.0513  142.6654 C   0  0  0  0  0  0  0  0  0  0  0  0
  139.7112  129.9578  143.0985 C   0  0  0  0  0  3  0  0  0  0  0  0
  140.3014  128.9348  143.9479 C   0  0  0  0  0  0  0  0  0  0  0  0
  139.8289  127.8137  144.3854 C   0  0  0  0  0  0  0  0  0  0  0  0
  138.2584  127.1229  144.0894 Cl  0  0  0  0  0  0  0  0  0  0  0  0
  1  2  1  0
  2  3  1  0
  3  4  1  1
  3  5  1  0
  5  6  1  0
  6  7  1  0
  7  8  2  0
  7  9  1  0
  9 10  1  0
 10 11  1  0
 11 12  1  0
 12 13  1  0
 13 14  1  0
 12 15  1  0
 15 16  1  0
 16 17  1  0
 17 18  1  0
 17 19  1  0
 16 20  1  0
 20 21  2  3
 21 22  1  0
 22 23  1  0
 23 24  2  3
 24 25  1  0
 14  9  1  0
 20 12  1  0
M  RAD  2   5   2  22   2
M  END
>  <docking_score>  (1) 
-6.5919999999999996

$$$$

     RDKit          3D

 25 26  0  0  0  0  0  0  0  0999 V2000
  133.8212  134.1680  136.5860 C   0  0  0  0  0  0  0  0  0  0  0  0
  133.5376  132.7953  136.0323 C   0  0  0  0  0  0  0  0  0  0  0  0
  132.1225  132.7070  135.5716 C   0  0  2  0  0  0  0  0  0  0  0  0
  131.1968  133.4109  136.5649 C   0  0  0  0  0  0  0  0  0  0  0  0
  131.6662  131.3041  135.3054 C   0  0  0  0  0  3  0  0  0  0  0  0
  132.4049  130.4055  136.1785 N   0  0  0  0  0  0  0  0  0  0  0  0
  132.4837  129.0102  135.8578 C   0  0  0  0  0  0  0  0  0  0  0  0
  131.8939  128.6421  134.8133 O   0  0  0  0  0  0  0  0  0  0  0  0
  133.2013  128.1307  136.7077 N   0  0  0  0  0  0  0  0  0  0  0  0
  134.4971  127.6909  136.3379 C   0  0  0  0  0  0  0  0  0  0  0  0
  134.9891  126.4170  136.9530 C   0  0  0  0  0  0  0  0  0  0  0  0
  134.2905  126.1551  138.2178 C   0  0  0  0  0  0  0  0  0  0  0  0
  132.8009  126.2404  138.1154 C   0  0  0  0  0  0  0  0  0  0  0  0
  132.5179  127.7409  137.9356 C   0  0  0  0  0  0  0  0  0  0  0  0
  134.8572  127.0154  139.3602 C   0  0  0  0  0  0  0  0  0  0  0  0
  134.4428  125.8951  140.1816 N   0  0  0  0  0  0  0  0  0  0  0  0
  133.9138  125.7515  141.4917 C   0  0  0  0  0  0  0  0  0  0  0  0
  132.8130  126.7083  141.8548 C   0  0  0  0  0  0  0  0  0  0  0  0
  134.9871  125.7247  142.5656 C   0  0  0  0  0  0  0  0  0  0  0  0
  134.7994  125.0645  139.1010 C   0  0  0  0  0  0  0  0  0  0  0  0
  135.3294  123.8992  138.8352 C   0  0  0  0  0  0  0  0  0  0  0  0
  135.8019  122.8855  139.7458 C   0  0  0  0  0  3  0  0  0  0  0  0
  135.0441  121.6483  139.8532 C   0  0  0  0  0  0  0  0  0  0  0  0
  133.7848  121.4351  140.0539 C   0  0  0  0  0  0  0  0  0  0  0  0
  132.5189  122.6105  140.2709 Cl  0  0  0  0  0  0  0  0  0  0  0  0
  1  2  1  0
  2  3  1  0
  3  4  1  1
  3  5  1  0
  5  6  1  0
  6  7  1  0
  7  8  2  0
  7  9  1  0
  9 10  1  0
 10 11  1  0
 11 12  1  0
 12 13  1  0
 13 14  1  0
 12 15  1  0
 15 16  1  0
 16 17  1  0
 17 18  1  0
 17 19  1  0
 16 20  1  0
 20 21  2  3
 21 22  1  0
 22 23  1  0
 23 24  2  3
 24 25  1  0
 14  9  1  0
 20 12  1  0
M  RAD  2   5   2  22   2
M  END
>  <docking_score>  (2) 
-6.5410000000000004

$$$$

     RDKit          3D

 25 26  0  0  0  0  0  0  0  0999 V2000
  122.3999  124.4566  144.1508 C   0  0  0  0  0  0  0  0  0  0  0  0
  122.5490  125.8985  143.7386 C   0  0  0  0  0  0  0  0  0  0  0  0
  123.7946  126.0808  142.9401 C   0  0  2  0  0  0  0  0  0  0  0  0
  123.4852  125.9822  141.4455 C   0  0  0  0  0  0  0  0  0  0  0  0
  124.8974  125.1428  143.3287 C   0  0  0  0  0  3  0  0  0  0  0  0
  126.0895  125.4945  142.5732 N   0  0  0  0  0  0  0  0  0  0  0  0
  127.3713  125.4632  143.2150 C   0  0  0  0  0  0  0  0  0  0  0  0
  127.3839  125.1235  144.4229 O   0  0  0  0  0  0  0  0  0  0  0  0
  128.5355  125.8074  142.4824 N   0  0  0  0  0  0  0  0  0  0  0  0
  128.7671  127.1571  142.1164 C   0  0  0  0  0  0  0  0  0  0  0  0
  129.6758  127.4042  140.9517 C   0  0  0  0  0  0  0  0  0  0  0  0
  130.5802  126.2639  140.7560 C   0  0  0  0  0  0  0  0  0  0  0  0
  129.8847  124.9408  140.7092 C   0  0  0  0  0  0  0  0  0  0  0  0
  129.4278  124.7005  142.1575 C   0  0  0  0  0  0  0  0  0  0  0  0
  131.7410  126.2892  141.7650 C   0  0  0  0  0  0  0  0  0  0  0  0
  132.4585  125.6189  140.6984 N   0  0  0  0  0  0  0  0  0  0  0  0
  133.4573  124.6112  140.6382 C   0  0  0  0  0  0  0  0  0  0  0  0
  134.8445  125.0919  140.3159 C   0  0  0  0  0  0  0  0  0  0  0  0
  133.0676  123.4413  139.7521 C   0  0  0  0  0  0  0  0  0  0  0  0
  131.7172  126.4116  139.8000 C   0  0  0  0  0  0  0  0  0  0  0  0
  131.8265  127.0455  138.6618 C   0  0  0  0  0  0  0  0  0  0  0  0
  132.9648  127.1460  137.7818 C   0  0  0  0  0  3  0  0  0  0  0  0
  133.3972  125.9502  137.0752 C   0  0  0  0  0  0  0  0  0  0  0  0
  134.3288  125.7692  136.1972 C   0  0  0  0  0  0  0  0  0  0  0  0
  135.4267  126.9494  135.5393 Cl  0  0  0  0  0  0  0  0  0  0  0  0
  1  2  1  0
  2  3  1  0
  3  4  1  6
  3  5  1  0
  5  6  1  0
  6  7  1  0
  7  8  2  0
  7  9  1  0
  9 10  1  0
 10 11  1  0
 11 12  1  0
 12 13  1  0
 13 14  1  0
 12 15  1  0
 15 16  1  0
 16 17  1  0
 17 18  1  0
 17 19  1  0
 16 20  1  0
 20 21  2  3
 21 22  1  0
 22 23  1  0
 23 24  2  3
 24 25  1  0
 14  9  1  0
 20 12  1  0
M  RAD  2   5   2  22   2
M  END
>  <docking_score>  (3) 
-6.5069999999999997

$$$$
