
     RDKit          3D

 29 33  0  0  0  0  0  0  0  0999 V2000
  133.2767  124.0659  139.9548 O   0  0  0  0  0  0  0  0  0  0  0  0
  134.2891  123.9170  139.2092 C   0  0  0  0  0  0  0  0  0  0  0  0
  135.0739  122.7976  139.4273 N   0  0  0  0  0  0  0  0  0  0  0  0
  135.0478  121.7367  140.2712 C   0  0  2  0  0  0  0  0  0  0  0  0
  136.3082  121.4423  141.1111 C   0  0  0  0  0  0  0  0  0  0  0  0
  135.5113  120.3887  140.3282 C   0  0  2  0  0  0  0  0  0  0  0  0
  136.3034  119.6211  139.3812 C   0  0  0  0  0  0  0  0  0  0  0  0
  135.8608  119.4178  138.0999 C   0  0  0  0  0  0  0  0  0  0  0  0
  136.6251  118.6974  137.2062 C   0  0  0  0  0  0  0  0  0  0  0  0
  137.8335  118.1956  137.6285 C   0  0  0  0  0  0  0  0  0  0  0  0
  138.2800  118.4049  138.9293 C   0  0  0  0  0  0  0  0  0  0  0  0
  137.5189  119.1165  139.8111 C   0  0  0  0  0  0  0  0  0  0  0  0
  134.5484  124.8712  138.2273 N   0  0  0  0  0  0  0  0  0  0  0  0
  133.4010  125.5727  137.6264 C   0  0  0  0  0  0  0  0  0  0  0  0
  133.4823  126.9418  138.3236 C   0  0  0  0  0  0  0  0  0  0  0  0
  134.7625  127.5932  137.7945 C   0  0  0  0  0  0  0  0  0  0  0  0
  134.2883  128.6919  136.9043 C   0  0  0  0  0  0  0  0  0  0  0  0
  134.1565  129.9966  137.2935 N   0  0  0  0  0  0  0  0  0  0  0  0
  133.7090  130.7470  136.2770 C   0  0  0  0  0  0  0  0  0  0  0  0
  133.4413  132.1813  136.3066 C   0  0  0  0  0  0  0  0  0  0  0  0
  132.2347  132.6469  135.7482 C   0  0  0  0  0  0  0  0  0  0  0  0
  131.9090  133.9841  135.7421 C   0  0  0  0  0  0  0  0  0  0  0  0
  132.7658  134.9162  136.2897 C   0  0  0  0  0  0  0  0  0  0  0  0
  133.9667  134.4744  136.8481 C   0  0  0  0  0  0  0  0  0  0  0  0
  134.2806  133.1115  136.8462 C   0  0  0  0  0  0  0  0  0  0  0  0
  133.5670  129.8949  135.2617 N   0  0  0  0  0  0  0  0  0  0  0  0
  133.9162  128.6765  135.6532 O   0  0  0  0  0  0  0  0  0  0  0  0
  135.6908  126.6815  137.1027 C   0  0  0  0  0  0  0  0  0  0  0  0
  135.8163  125.3006  137.7638 C   0  0  0  0  0  0  0  0  0  0  0  0
  1  2  2  0
  2  3  1  0
  4  3  1  6
  4  5  1  0
  5  6  1  0
  6  7  1  6
  7  8  2  0
  8  9  1  0
  9 10  2  0
 10 11  1  0
 11 12  2  0
  2 13  1  0
 13 14  1  0
 14 15  1  0
 15 16  1  0
 16 17  1  0
 17 18  2  0
 18 19  1  0
 19 20  1  0
 20 21  2  0
 21 22  1  0
 22 23  2  0
 23 24  1  0
 24 25  2  0
 19 26  2  0
 26 27  1  0
 16 28  1  0
 28 29  1  0
  6  4  1  0
 12  7  1  0
 29 13  1  0
 27 17  1  0
 25 20  1  0
M  END
>  <docking_score>  (1) 
-9.0670000000000002

$$$$

     RDKit          3D

 29 33  0  0  0  0  0  0  0  0999 V2000
  135.8119  121.6892  138.6631 O   0  0  0  0  0  0  0  0  0  0  0  0
  135.2196  121.8958  139.7629 C   0  0  0  0  0  0  0  0  0  0  0  0
  135.5367  121.0569  140.8175 N   0  0  0  0  0  0  0  0  0  0  0  0
  136.3746  120.0090  141.0132 C   0  0  2  0  0  0  0  0  0  0  0  0
  137.8319  120.1397  140.5236 C   0  0  0  0  0  0  0  0  0  0  0  0
  136.9323  118.9191  140.2810 C   0  0  2  0  0  0  0  0  0  0  0  0
  136.7899  118.5493  138.8822 C   0  0  0  0  0  0  0  0  0  0  0  0
  137.8675  118.5811  138.0357 C   0  0  0  0  0  0  0  0  0  0  0  0
  137.7238  118.2179  136.7130 C   0  0  0  0  0  0  0  0  0  0  0  0
  136.4836  117.8232  136.2699 C   0  0  0  0  0  0  0  0  0  0  0  0
  135.3924  117.7910  137.1322 C   0  0  0  0  0  0  0  0  0  0  0  0
  135.5389  118.1538  138.4400 C   0  0  0  0  0  0  0  0  0  0  0  0
  134.3005  122.9399  139.8468 N   0  0  0  0  0  0  0  0  0  0  0  0
  134.8213  124.3173  139.8762 C   0  0  0  0  0  0  0  0  0  0  0  0
  134.5232  124.7860  138.4414 C   0  0  0  0  0  0  0  0  0  0  0  0
  132.9973  124.8612  138.3459 C   0  0  0  0  0  0  0  0  0  0  0  0
  132.6924  126.3203  138.2969 C   0  0  0  0  0  0  0  0  0  0  0  0
  133.3997  127.2312  137.5613 N   0  0  0  0  0  0  0  0  0  0  0  0
  132.8902  128.4607  137.7206 C   0  0  0  0  0  0  0  0  0  0  0  0
  133.3751  129.6901  137.1016 C   0  0  0  0  0  0  0  0  0  0  0  0
  132.4324  130.6731  136.7416 C   0  0  0  0  0  0  0  0  0  0  0  0
  132.8123  131.8602  136.1577 C   0  0  0  0  0  0  0  0  0  0  0  0
  134.1428  132.1229  135.9064 C   0  0  0  0  0  0  0  0  0  0  0  0
  135.0924  131.1611  136.2562 C   0  0  0  0  0  0  0  0  0  0  0  0
  134.6881  129.9608  136.8495 C   0  0  0  0  0  0  0  0  0  0  0  0
  131.8661  128.2988  138.5584 N   0  0  0  0  0  0  0  0  0  0  0  0
  131.7633  127.0188  138.8910 O   0  0  0  0  0  0  0  0  0  0  0  0
  132.2666  124.1787  139.4283 C   0  0  0  0  0  0  0  0  0  0  0  0
  132.8875  122.8388  139.8510 C   0  0  0  0  0  0  0  0  0  0  0  0
  1  2  2  0
  2  3  1  0
  4  3  1  6
  4  5  1  0
  5  6  1  0
  6  7  1  6
  7  8  2  0
  8  9  1  0
  9 10  2  0
 10 11  1  0
 11 12  2  0
  2 13  1  0
 13 14  1  0
 14 15  1  0
 15 16  1  0
 16 17  1  0
 17 18  2  0
 18 19  1  0
 19 20  1  0
 20 21  2  0
 21 22  1  0
 22 23  2  0
 23 24  1  0
 24 25  2  0
 19 26  2  0
 26 27  1  0
 16 28  1  0
 28 29  1  0
  6  4  1  0
 12  7  1  0
 29 13  1  0
 27 17  1  0
 25 20  1  0
M  END
>  <docking_score>  (2) 
-8.7729999999999997

$$$$

     RDKit          3D

 29 33  0  0  0  0  0  0  0  0999 V2000
  135.8345  121.8059  138.5736 O   0  0  0  0  0  0  0  0  0  0  0  0
  135.5348  122.3303  139.6864 C   0  0  0  0  0  0  0  0  0  0  0  0
  135.8298  121.6025  140.8265 N   0  0  0  0  0  0  0  0  0  0  0  0
  136.4021  120.4037  141.0983 C   0  0  2  0  0  0  0  0  0  0  0  0
  137.8590  120.1724  140.6460 C   0  0  0  0  0  0  0  0  0  0  0  0
  136.7084  119.1770  140.4376 C   0  0  2  0  0  0  0  0  0  0  0  0
  136.5095  118.7733  139.0552 C   0  0  0  0  0  0  0  0  0  0  0  0
  137.4802  118.9960  138.1134 C   0  0  0  0  0  0  0  0  0  0  0  0
  137.2858  118.5992  136.8070 C   0  0  0  0  0  0  0  0  0  0  0  0
  136.1051  117.9767  136.4770 C   0  0  0  0  0  0  0  0  0  0  0  0
  135.1227  117.7512  137.4357 C   0  0  0  0  0  0  0  0  0  0  0  0
  135.3185  118.1480  138.7271 C   0  0  0  0  0  0  0  0  0  0  0  0
  134.9380  123.5895  139.6984 N   0  0  0  0  0  0  0  0  0  0  0  0
  135.8177  124.7699  139.7463 C   0  0  0  0  0  0  0  0  0  0  0  0
  135.7475  125.2610  138.2899 C   0  0  0  0  0  0  0  0  0  0  0  0
  134.3108  125.7518  138.0942 C   0  0  0  0  0  0  0  0  0  0  0  0
  134.4260  127.2363  138.0091 C   0  0  0  0  0  0  0  0  0  0  0  0
  133.6085  128.0307  137.2530 N   0  0  0  0  0  0  0  0  0  0  0  0
  133.9579  129.3186  137.3786 C   0  0  0  0  0  0  0  0  0  0  0  0
  133.3248  130.4595  136.7250 C   0  0  0  0  0  0  0  0  0  0  0  0
  132.0033  130.3133  136.2595 C   0  0  0  0  0  0  0  0  0  0  0  0
  131.3374  131.3445  135.6369 C   0  0  0  0  0  0  0  0  0  0  0  0
  131.9535  132.5643  135.4500 C   0  0  0  0  0  0  0  0  0  0  0  0
  133.2633  132.7290  135.9046 C   0  0  0  0  0  0  0  0  0  0  0  0
  133.9241  131.6702  136.5358 C   0  0  0  0  0  0  0  0  0  0  0  0
  134.9949  129.3098  138.2163 N   0  0  0  0  0  0  0  0  0  0  0  0
  135.2595  128.0621  138.5812 O   0  0  0  0  0  0  0  0  0  0  0  0
  133.3562  125.3291  139.1341 C   0  0  0  0  0  0  0  0  0  0  0  0
  133.5548  123.8825  139.6114 C   0  0  0  0  0  0  0  0  0  0  0  0
  1  2  2  0
  2  3  1  0
  4  3  1  6
  4  5  1  0
  5  6  1  0
  6  7  1  6
  7  8  2  0
  8  9  1  0
  9 10  2  0
 10 11  1  0
 11 12  2  0
  2 13  1  0
 13 14  1  0
 14 15  1  0
 15 16  1  0
 16 17  1  0
 17 18  2  0
 18 19  1  0
 19 20  1  0
 20 21  2  0
 21 22  1  0
 22 23  2  0
 23 24  1  0
 24 25  2  0
 19 26  2  0
 26 27  1  0
 16 28  1  0
 28 29  1  0
  6  4  1  0
 12  7  1  0
 29 13  1  0
 27 17  1  0
 25 20  1  0
M  END
>  <docking_score>  (3) 
-8.7599999999999998

$$$$
