
     RDKit          3D

 24 27  0  0  0  0  0  0  0  0999 V2000
  129.3144  133.0596  144.1161 O   0  0  0  0  0  0  0  0  0  0  0  0
  129.5077  134.0451  143.3339 C   0  0  0  0  0  0  0  0  0  0  0  0
  129.6322  133.7240  141.9664 N   0  0  0  0  0  0  0  0  0  0  0  0
  129.2652  134.5464  140.8460 C   0  0  0  0  0  0  0  0  0  0  0  0
  128.9971  133.8000  139.7167 C   0  0  0  0  0  0  0  0  0  0  0  0
  128.6312  134.4830  138.5658 C   0  0  0  0  0  0  0  0  0  0  0  0
  128.2968  133.4973  137.1444 Cl  0  0  0  0  0  0  0  0  0  0  0  0
  128.5414  135.8391  138.5567 C   0  0  0  0  0  0  0  0  0  0  0  0
  128.8156  136.5660  139.7035 C   0  0  0  0  0  0  0  0  0  0  0  0
  128.7180  137.9025  139.6613 F   0  0  0  0  0  0  0  0  0  0  0  0
  129.1804  135.9220  140.8587 C   0  0  0  0  0  0  0  0  0  0  0  0
  129.5766  135.3363  143.9036 N   0  0  0  0  0  0  0  0  0  0  0  0
  129.8078  135.2198  145.3502 C   0  0  0  0  0  0  0  0  0  0  0  0
  128.6216  135.8241  146.0121 C   0  0  0  0  0  0  0  0  0  0  0  0
  128.0666  137.0519  145.4276 C   0  0  1  0  0  0  0  0  0  0  0  0
  128.7721  137.6252  144.2446 C   0  0  2  0  0  0  0  0  0  0  0  0
  129.4706  136.6304  143.3845 C   0  0  2  0  0  0  0  0  0  0  0  0
  129.4305  136.8364  141.9583 C   0  0  0  0  0  0  0  0  0  0  0  0
  129.6068  137.9158  141.1808 C   0  0  0  0  0  0  0  0  0  0  0  0
  129.9080  139.2991  141.4924 N   0  0  0  0  0  0  0  0  0  0  0  0
  129.4800  140.0866  142.5974 C   0  0  0  0  0  0  0  0  0  0  0  0
  129.3622  139.9349  143.9084 C   0  0  0  0  0  0  0  0  0  0  0  0
  129.6859  138.7263  144.7504 C   0  0  0  0  0  0  0  0  0  0  0  0
  126.7115  137.1332  145.3712 F   0  0  0  0  0  0  0  0  0  0  0  0
  1  2  2  0
  2  3  1  0
  3  4  1  0
  4  5  2  0
  5  6  1  0
  6  7  1  0
  6  8  2  0
  8  9  1  0
  9 10  1  0
  9 11  2  0
  2 12  1  0
 12 13  1  0
 13 14  1  0
 14 15  1  0
 15 16  1  0
 16 17  1  0
 17 18  1  0
 18 19  2  3
 19 20  1  0
 20 21  1  0
 21 22  2  3
 22 23  1  0
 15 24  1  6
 11  4  1  0
 18 11  1  0
 17 12  1  6
 16 23  1  1
M  END
>  <docking_score>  (1) 
-8.3339999999999996

$$$$

     RDKit          3D

 24 27  0  0  0  0  0  0  0  0999 V2000
  137.0141  125.9492  142.7511 O   0  0  0  0  0  0  0  0  0  0  0  0
  136.2258  125.3460  141.9541 C   0  0  0  0  0  0  0  0  0  0  0  0
  136.7708  124.2319  141.2829 N   0  0  0  0  0  0  0  0  0  0  0  0
  136.0685  123.0596  140.8373 C   0  0  0  0  0  0  0  0  0  0  0  0
  136.9010  121.9651  140.7216 C   0  0  0  0  0  0  0  0  0  0  0  0
  136.3379  120.7701  140.2977 C   0  0  0  0  0  0  0  0  0  0  0  0
  137.4310  119.3952  140.1619 Cl  0  0  0  0  0  0  0  0  0  0  0  0
  135.0127  120.6861  140.0080 C   0  0  0  0  0  0  0  0  0  0  0  0
  134.1976  121.7992  140.1321 C   0  0  0  0  0  0  0  0  0  0  0  0
  132.8946  121.6831  139.8384 F   0  0  0  0  0  0  0  0  0  0  0  0
  134.7222  122.9965  140.5487 C   0  0  0  0  0  0  0  0  0  0  0  0
  134.9098  125.8438  141.8248 N   0  0  0  0  0  0  0  0  0  0  0  0
  134.8524  127.2144  142.3522 C   0  0  0  0  0  0  0  0  0  0  0  0
  133.9094  127.1802  143.5009 C   0  0  0  0  0  0  0  0  0  0  0  0
  132.6934  126.3683  143.3606 C   0  0  1  0  0  0  0  0  0  0  0  0
  132.4758  125.6839  142.0529 C   0  0  2  0  0  0  0  0  0  0  0  0
  133.7185  125.3117  141.3220 C   0  0  2  0  0  0  0  0  0  0  0  0
  133.7284  124.0523  140.6205 C   0  0  0  0  0  0  0  0  0  0  0  0
  132.8451  123.4427  139.8150 C   0  0  0  0  0  0  0  0  0  0  0  0
  131.5306  123.8311  139.3435 N   0  0  0  0  0  0  0  0  0  0  0  0
  130.5096  124.5554  140.0197 C   0  0  0  0  0  0  0  0  0  0  0  0
  130.4303  125.6348  140.7840 C   0  0  0  0  0  0  0  0  0  0  0  0
  131.5378  126.5535  141.2359 C   0  0  0  0  0  0  0  0  0  0  0  0
  132.3267  125.6398  144.4473 F   0  0  0  0  0  0  0  0  0  0  0  0
  1  2  2  0
  2  3  1  0
  3  4  1  0
  4  5  2  0
  5  6  1  0
  6  7  1  0
  6  8  2  0
  8  9  1  0
  9 10  1  0
  9 11  2  0
  2 12  1  0
 12 13  1  0
 13 14  1  0
 14 15  1  0
 15 16  1  0
 16 17  1  0
 17 18  1  0
 18 19  2  3
 19 20  1  0
 20 21  1  0
 21 22  2  3
 22 23  1  0
 15 24  1  1
 11  4  1  0
 18 11  1  0
 17 12  1  1
 16 23  1  6
M  END
>  <docking_score>  (2) 
-8.2080000000000002

$$$$

     RDKit          3D

 24 27  0  0  0  0  0  0  0  0999 V2000
  139.2972  113.1210  163.1707 O   0  0  0  0  0  0  0  0  0  0  0  0
  140.1596  114.0568  163.2022 C   0  0  0  0  0  0  0  0  0  0  0  0
  140.9825  114.0906  164.3469 N   0  0  0  0  0  0  0  0  0  0  0  0
  142.3363  114.5671  164.4275 C   0  0  0  0  0  0  0  0  0  0  0  0
  143.0287  113.9964  165.4759 C   0  0  0  0  0  0  0  0  0  0  0  0
  144.3500  114.3783  165.6583 C   0  0  0  0  0  0  0  0  0  0  0  0
  145.2017  113.6292  167.0062 Cl  0  0  0  0  0  0  0  0  0  0  0  0
  144.9365  115.2828  164.8306 C   0  0  0  0  0  0  0  0  0  0  0  0
  144.2202  115.8416  163.7849 C   0  0  0  0  0  0  0  0  0  0  0  0
  144.8279  116.7310  162.9867 F   0  0  0  0  0  0  0  0  0  0  0  0
  142.9116  115.4861  163.5764 C   0  0  0  0  0  0  0  0  0  0  0  0
  140.2045  114.9500  162.1083 N   0  0  0  0  0  0  0  0  0  0  0  0
  138.9584  114.8400  161.3369 C   0  0  0  0  0  0  0  0  0  0  0  0
  139.3467  114.3658  159.9825 C   0  0  0  0  0  0  0  0  0  0  0  0
  140.5631  114.9320  159.3849 C   0  0  1  0  0  0  0  0  0  0  0  0
  141.2839  115.9797  160.1649 C   0  0  2  0  0  0  0  0  0  0  0  0
  141.1545  115.8648  161.6439 C   0  0  2  0  0  0  0  0  0  0  0  0
  142.3168  116.1678  162.4410 C   0  0  0  0  0  0  0  0  0  0  0  0
  143.2216  117.1581  162.4064 C   0  0  0  0  0  0  0  0  0  0  0  0
  143.3684  118.3106  161.5394 N   0  0  0  0  0  0  0  0  0  0  0  0
  143.0878  118.4331  160.1500 C   0  0  0  0  0  0  0  0  0  0  0  0
  142.1181  118.0747  159.3213 C   0  0  0  0  0  0  0  0  0  0  0  0
  140.8434  117.3292  159.6279 C   0  0  0  0  0  0  0  0  0  0  0  0
  141.3721  114.0615  158.7261 F   0  0  0  0  0  0  0  0  0  0  0  0
  1  2  2  0
  2  3  1  0
  3  4  1  0
  4  5  2  0
  5  6  1  0
  6  7  1  0
  6  8  2  0
  8  9  1  0
  9 10  1  0
  9 11  2  0
  2 12  1  0
 12 13  1  0
 13 14  1  0
 14 15  1  0
 15 16  1  0
 16 17  1  0
 17 18  1  0
 18 19  2  3
 19 20  1  0
 20 21  1  0
 21 22  2  3
 22 23  1  0
 15 24  1  1
 11  4  1  0
 18 11  1  0
 17 12  1  6
 16 23  1  6
M  END
>  <docking_score>  (3) 
-5.7800000000000002

$$$$
