
     RDKit          3D

 23 25  0  0  0  0  0  0  0  0999 V2000
  136.4453  134.9485  141.2712 O   0  0  0  0  0  0  0  0  0  0  0  0
  137.3950  134.2409  141.6887 C   0  0  0  0  0  0  0  0  0  0  0  0
  138.5703  135.0034  141.9328 N   0  0  0  0  0  0  0  0  0  0  0  0
  139.9613  134.6388  141.9759 C   0  0  0  0  0  0  0  0  0  0  0  0
  140.6772  135.7664  141.6344 C   0  0  0  0  0  0  0  0  0  0  0  0
  142.0533  135.6995  141.5956 C   0  0  0  0  0  0  0  0  0  0  0  0
  143.0422  137.0852  141.1714 Cl  0  0  0  0  0  0  0  0  0  0  0  0
  142.6614  134.5040  141.9008 C   0  0  0  0  0  0  0  0  0  0  0  0
  141.9553  133.3611  142.2462 C   0  0  0  0  0  0  0  0  0  0  0  0
  142.6375  132.2153  142.5345 F   0  0  0  0  0  0  0  0  0  0  0  0
  140.5804  133.4293  142.2844 C   0  0  0  0  0  0  0  0  0  0  0  0
  137.0984  132.8421  141.8280 N   0  0  0  0  0  0  0  0  0  0  0  0
  137.6477  131.7597  142.5772 C   0  0  0  0  0  0  0  0  0  0  0  0
  136.6714  130.7279  143.0556 C   0  0  0  0  0  0  0  0  0  0  0  0
  137.0318  129.5031  142.2170 C   0  0  0  0  0  0  0  0  0  0  0  0
  138.9518  130.0119  143.8435 S   0  0  2  0  0  0  0  0  0  0  0  0
  138.8628  131.4325  142.9316 C   0  0  0  0  0  0  0  0  0  0  0  0
  140.1703  132.0878  142.6722 C   0  0  0  0  0  0  0  0  0  0  0  0
  141.1490  131.2863  142.8265 O   0  0  0  0  0  0  0  0  0  0  0  0
  139.6630  128.5240  143.4499 C   0  0  0  0  0  3  0  0  0  0  0  0
  140.7211  128.2191  144.3721 N   0  0  0  0  0  0  0  0  0  0  0  0
  141.1113  126.9889  144.4496 C   0  0  0  0  0  0  0  0  0  0  0  0
  142.1078  126.6262  145.3003 F   0  0  0  0  0  0  0  0  0  0  0  0
  1  2  2  0
  2  3  1  0
  3  4  1  0
  4  5  2  0
  5  6  1  0
  6  7  1  0
  6  8  2  0
  8  9  1  0
  9 10  1  0
  9 11  2  0
  2 12  1  0
 12 13  1  0
 13 14  1  0
 14 15  1  0
 15 16  1  0
 16 17  1  0
 17 18  1  0
 18 19  2  0
 16 20  1  6
 20 21  1  0
 21 22  2  3
 22 23  1  0
 11  4  1  0
 18 11  1  0
 13 17  2  0
M  RAD  1  20   2
M  END
>  <docking_score>  (1) 
-7.3639999999999999

$$$$

     RDKit          3D

 23 25  0  0  0  0  0  0  0  0999 V2000
  129.7530  124.1620  141.3102 O   0  0  0  0  0  0  0  0  0  0  0  0
  130.6659  124.5277  140.5293 C   0  0  0  0  0  0  0  0  0  0  0  0
  131.5593  123.4686  140.2091 N   0  0  0  0  0  0  0  0  0  0  0  0
  132.9265  123.4664  139.7611 C   0  0  0  0  0  0  0  0  0  0  0  0
  133.4806  122.2777  140.1862 C   0  0  0  0  0  0  0  0  0  0  0  0
  134.7998  122.0103  139.8896 C   0  0  0  0  0  0  0  0  0  0  0  0
  135.5849  120.5235  140.3910 Cl  0  0  0  0  0  0  0  0  0  0  0  0
  135.5152  122.9447  139.1776 C   0  0  0  0  0  0  0  0  0  0  0  0
  134.9721  124.1449  138.7431 C   0  0  0  0  0  0  0  0  0  0  0  0
  135.7525  125.0168  138.0417 F   0  0  0  0  0  0  0  0  0  0  0  0
  133.6540  124.4109  139.0401 C   0  0  0  0  0  0  0  0  0  0  0  0
  130.6143  125.9080  140.1340 N   0  0  0  0  0  0  0  0  0  0  0  0
  131.1294  126.6694  139.0435 C   0  0  0  0  0  0  0  0  0  0  0  0
  130.2738  127.8062  138.5720 C   0  0  0  0  0  0  0  0  0  0  0  0
  131.0796  129.0349  138.9895 C   0  0  0  0  0  0  0  0  0  0  0  0
  132.3383  127.7862  137.1328 S   0  0  2  0  0  0  0  0  0  0  0  0
  132.2374  126.6188  138.3512 C   0  0  0  0  0  0  0  0  0  0  0  0
  133.4157  125.7199  138.4501 C   0  0  0  0  0  0  0  0  0  0  0  0
  134.4469  126.2150  137.8887 O   0  0  0  0  0  0  0  0  0  0  0  0
  133.4007  129.0995  136.9870 C   0  0  0  0  0  3  0  0  0  0  0  0
  133.7830  129.2798  135.6143 N   0  0  0  0  0  0  0  0  0  0  0  0
  134.0616  128.2209  134.9268 C   0  0  0  0  0  0  0  0  0  0  0  0
  134.4309  128.3146  133.6216 F   0  0  0  0  0  0  0  0  0  0  0  0
  1  2  2  0
  2  3  1  0
  3  4  1  0
  4  5  2  0
  5  6  1  0
  6  7  1  0
  6  8  2  0
  8  9  1  0
  9 10  1  0
  9 11  2  0
  2 12  1  0
 12 13  1  0
 13 14  1  0
 14 15  1  0
 15 16  1  0
 16 17  1  0
 17 18  1  0
 18 19  2  0
 16 20  1  1
 20 21  1  0
 21 22  2  3
 22 23  1  0
 11  4  1  0
 18 11  1  0
 13 17  2  0
M  RAD  1  20   2
M  END
>  <docking_score>  (2) 
-7.2110000000000003

$$$$

     RDKit          3D

 23 25  0  0  0  0  0  0  0  0999 V2000
  139.9906  133.4631  141.1301 O   0  0  0  0  0  0  0  0  0  0  0  0
  140.6918  134.0690  140.2826 C   0  0  0  0  0  0  0  0  0  0  0  0
  140.2128  133.8873  138.9560 N   0  0  0  0  0  0  0  0  0  0  0  0
  140.8654  133.9794  137.6771 C   0  0  0  0  0  0  0  0  0  0  0  0
  140.1765  133.1475  136.8202 C   0  0  0  0  0  0  0  0  0  0  0  0
  140.5934  133.0420  135.5106 C   0  0  0  0  0  0  0  0  0  0  0  0
  139.7758  132.0080  134.3528 Cl  0  0  0  0  0  0  0  0  0  0  0  0
  141.6858  133.7745  135.1082 C   0  0  0  0  0  0  0  0  0  0  0  0
  142.3892  134.6155  135.9581 C   0  0  0  0  0  0  0  0  0  0  0  0
  143.4626  135.3066  135.4771 F   0  0  0  0  0  0  0  0  0  0  0  0
  141.9718  134.7199  137.2662 C   0  0  0  0  0  0  0  0  0  0  0  0
  141.8041  134.8010  140.8220 N   0  0  0  0  0  0  0  0  0  0  0  0
  142.6088  135.8926  140.3797 C   0  0  0  0  0  0  0  0  0  0  0  0
  143.0945  136.8269  141.4463 C   0  0  0  0  0  0  0  0  0  0  0  0
  144.5970  136.5535  141.4803 C   0  0  0  0  0  0  0  0  0  0  0  0
  143.9897  137.6766  139.2531 S   0  0  2  0  0  0  0  0  0  0  0  0
  143.0631  136.2634  139.2112 C   0  0  0  0  0  0  0  0  0  0  0  0
  142.9083  135.6611  137.8623 C   0  0  0  0  0  0  0  0  0  0  0  0
  143.8023  136.0658  137.0494 O   0  0  0  0  0  0  0  0  0  0  0  0
  145.6394  137.8911  138.9257 C   0  0  0  0  0  3  0  0  0  0  0  0
  146.0658  139.1945  139.3527 N   0  0  0  0  0  0  0  0  0  0  0  0
  146.8162  139.2642  140.4032 C   0  0  0  0  0  0  0  0  0  0  0  0
  147.2579  140.4640  140.8658 F   0  0  0  0  0  0  0  0  0  0  0  0
  1  2  2  0
  2  3  1  0
  3  4  1  0
  4  5  2  0
  5  6  1  0
  6  7  1  0
  6  8  2  0
  8  9  1  0
  9 10  1  0
  9 11  2  0
  2 12  1  0
 12 13  1  0
 13 14  1  0
 14 15  1  0
 15 16  1  0
 16 17  1  0
 17 18  1  0
 18 19  2  0
 16 20  1  6
 20 21  1  0
 21 22  2  3
 22 23  1  0
 11  4  1  0
 18 11  1  0
 13 17  2  0
M  RAD  1  20   2
M  END
>  <docking_score>  (3) 
-7.0190000000000001

$$$$
