
     RDKit          3D

 28 32  0  0  0  0  0  0  0  0999 V2000
  136.5653  119.7503  140.7772 O   0  0  0  0  0  0  0  0  0  0  0  0
  135.9681  120.3997  139.8852 C   0  0  0  0  0  0  0  0  0  0  0  0
  135.8521  119.8109  138.5965 N   0  0  0  0  0  0  0  0  0  0  0  0
  136.3783  118.5196  138.2540 C   0  0  0  0  0  0  0  0  0  0  0  0
  135.8976  117.8550  137.0200 C   0  0  0  0  0  0  0  0  0  0  0  0
  137.1508  118.3337  137.0224 C   0  0  0  0  0  0  0  0  0  0  0  0
  137.9981  118.1816  135.8047 C   0  0  0  0  0  0  0  0  0  0  0  0
  137.7415  116.8193  135.2357 C   0  0  0  0  0  0  0  0  0  0  0  0
  136.5074  116.3312  135.2191 C   0  0  0  0  0  0  0  0  0  0  0  0
  135.4290  117.1941  135.7834 C   0  0  0  0  0  0  0  0  0  0  0  0
  135.4257  121.6927  140.1710 N   0  0  0  0  0  0  0  0  0  0  0  0
  136.2423  122.8815  140.0357 C   0  0  0  0  0  0  0  0  0  0  0  0
  135.5085  123.8080  139.0661 C   0  0  0  0  0  0  0  0  0  0  0  0
  134.1054  124.0976  139.4698 C   0  0  2  0  0  0  0  0  0  0  0  0
  134.0984  124.8710  140.7569 C   0  0  0  0  0  0  0  0  0  0  0  0
  135.1547  125.3404  141.4515 N   0  0  0  0  0  0  0  0  0  0  0  0
  134.7492  125.9860  142.5580 C   0  0  0  0  0  0  0  0  0  0  0  0
  135.5422  126.6429  143.5884 C   0  0  0  0  0  0  0  0  0  0  0  0
  135.0472  126.9641  144.8330 C   0  0  0  0  0  0  0  0  0  0  0  0
  135.8498  127.5950  145.7841 C   0  0  0  0  0  0  0  0  0  0  0  0
  137.1567  127.9056  145.4848 C   0  0  0  0  0  0  0  0  0  0  0  0
  137.6279  127.5756  144.2360 C   0  0  0  0  0  0  0  0  0  0  0  0
  136.8204  126.9668  143.3469 N   0  0  0  0  0  0  0  0  0  0  0  0
  133.4015  125.8959  142.5186 N   0  0  0  0  0  0  0  0  0  0  0  0
  133.0476  125.2360  141.4496 O   0  0  0  0  0  0  0  0  0  0  0  0
  133.3114  122.8223  139.6698 C   0  0  0  0  0  0  0  0  0  0  0  0
  134.0542  121.8697  140.6034 C   0  0  1  0  0  0  0  0  0  0  0  0
  133.3861  120.5654  140.4528 N   0  0  0  0  0  0  0  0  0  0  0  0
  1  2  2  0
  2  3  1  0
  3  4  1  0
  4  5  1  0
  5  6  2  0
  6  7  1  0
  7  8  1  0
  8  9  2  0
  9 10  1  0
  2 11  1  0
 11 12  1  0
 12 13  1  0
 13 14  1  0
 14 15  1  1
 15 16  2  0
 16 17  1  0
 17 18  1  0
 18 19  2  0
 19 20  1  0
 20 21  2  0
 21 22  1  0
 22 23  2  0
 17 24  2  0
 24 25  1  0
 14 26  1  0
 26 27  1  0
 27 28  1  6
  6  4  1  0
 10  5  1  0
 27 11  1  0
 25 15  1  0
 23 18  1  0
M  END
>  <docking_score>  (1) 
-8.7050000000000001

$$$$

     RDKit          3D

 28 32  0  0  0  0  0  0  0  0999 V2000
  120.2879  123.8456  143.6719 O   0  0  0  0  0  0  0  0  0  0  0  0
  121.1691  124.0962  142.8146 C   0  0  0  0  0  0  0  0  0  0  0  0
  120.7819  124.1176  141.4470 N   0  0  0  0  0  0  0  0  0  0  0  0
  119.4445  123.8680  140.9878 C   0  0  0  0  0  0  0  0  0  0  0  0
  118.9081  124.6800  139.8704 C   0  0  0  0  0  0  0  0  0  0  0  0
  119.2029  123.3951  139.6216 C   0  0  0  0  0  0  0  0  0  0  0  0
  118.9836  122.8421  138.2542 C   0  0  0  0  0  0  0  0  0  0  0  0
  117.6971  123.4066  137.7330 C   0  0  0  0  0  0  0  0  0  0  0  0
  117.3908  124.6771  137.9638 C   0  0  0  0  0  0  0  0  0  0  0  0
  118.3738  125.4802  138.7480 C   0  0  0  0  0  0  0  0  0  0  0  0
  122.5188  124.3505  143.2164 N   0  0  0  0  0  0  0  0  0  0  0  0
  122.9935  125.7081  143.3898 C   0  0  0  0  0  0  0  0  0  0  0  0
  123.5266  125.8057  144.8192 C   0  0  0  0  0  0  0  0  0  0  0  0
  124.5516  124.7756  145.1414 C   0  0  2  0  0  0  0  0  0  0  0  0
  125.7758  124.9996  144.3012 C   0  0  0  0  0  0  0  0  0  0  0  0
  126.3188  126.1729  143.9176 N   0  0  0  0  0  0  0  0  0  0  0  0
  127.4159  125.9688  143.1691 C   0  0  0  0  0  0  0  0  0  0  0  0
  128.3060  126.9407  142.5485 C   0  0  0  0  0  0  0  0  0  0  0  0
  128.0053  127.6014  141.3779 C   0  0  0  0  0  0  0  0  0  0  0  0
  128.8948  128.5229  140.8245 C   0  0  0  0  0  0  0  0  0  0  0  0
  130.0933  128.7831  141.4491 C   0  0  0  0  0  0  0  0  0  0  0  0
  130.3712  128.1110  142.6159 C   0  0  0  0  0  0  0  0  0  0  0  0
  129.4852  127.2296  143.1170 N   0  0  0  0  0  0  0  0  0  0  0  0
  127.5280  124.6237  143.1059 N   0  0  0  0  0  0  0  0  0  0  0  0
  126.5513  124.0806  143.7802 O   0  0  0  0  0  0  0  0  0  0  0  0
  124.0342  123.3762  144.8752 C   0  0  0  0  0  0  0  0  0  0  0  0
  123.4595  123.2769  143.4643 C   0  0  1  0  0  0  0  0  0  0  0  0
  122.6918  122.0199  143.4363 N   0  0  0  0  0  0  0  0  0  0  0  0
  1  2  2  0
  2  3  1  0
  3  4  1  0
  4  5  1  0
  5  6  2  0
  6  7  1  0
  7  8  1  0
  8  9  2  0
  9 10  1  0
  2 11  1  0
 11 12  1  0
 12 13  1  0
 13 14  1  0
 14 15  1  6
 15 16  2  0
 16 17  1  0
 17 18  1  0
 18 19  2  0
 19 20  1  0
 20 21  2  0
 21 22  1  0
 22 23  2  0
 17 24  2  0
 24 25  1  0
 14 26  1  0
 26 27  1  0
 27 28  1  1
  6  4  1  0
 10  5  1  0
 27 11  1  0
 25 15  1  0
 23 18  1  0
M  END
>  <docking_score>  (2) 
-8.1859999999999999

$$$$

     RDKit          3D

 28 32  0  0  0  0  0  0  0  0999 V2000
  133.4462  120.7860  140.7699 O   0  0  0  0  0  0  0  0  0  0  0  0
  134.1589  121.5621  140.0889 C   0  0  0  0  0  0  0  0  0  0  0  0
  135.3142  121.0256  139.4580 N   0  0  0  0  0  0  0  0  0  0  0  0
  135.7155  119.6503  139.5546 C   0  0  0  0  0  0  0  0  0  0  0  0
  135.7652  118.8307  138.3211 C   0  0  0  0  0  0  0  0  0  0  0  0
  136.9314  119.1810  138.8841 C   0  0  0  0  0  0  0  0  0  0  0  0
  138.2113  118.7402  138.2585 C   0  0  0  0  0  0  0  0  0  0  0  0
  138.0275  117.3307  137.7845 C   0  0  0  0  0  0  0  0  0  0  0  0
  136.8830  116.9668  137.2196 C   0  0  0  0  0  0  0  0  0  0  0  0
  135.8272  118.0132  137.0910 C   0  0  0  0  0  0  0  0  0  0  0  0
  133.8069  122.9432  139.9604 N   0  0  0  0  0  0  0  0  0  0  0  0
  132.5113  123.3289  139.4398 C   0  0  0  0  0  0  0  0  0  0  0  0
  131.8604  124.2165  140.5007 C   0  0  0  0  0  0  0  0  0  0  0  0
  132.7040  125.3748  140.9036 C   0  0  2  0  0  0  0  0  0  0  0  0
  132.8785  126.3040  139.7370 C   0  0  0  0  0  0  0  0  0  0  0  0
  131.9597  127.1147  139.1740 N   0  0  0  0  0  0  0  0  0  0  0  0
  132.4916  127.7972  138.1460 C   0  0  0  0  0  0  0  0  0  0  0  0
  131.8679  128.7727  137.2620 C   0  0  0  0  0  0  0  0  0  0  0  0
  130.6938  129.4258  137.5655 C   0  0  0  0  0  0  0  0  0  0  0  0
  130.1375  130.3512  136.6818 C   0  0  0  0  0  0  0  0  0  0  0  0
  130.7628  130.6229  135.4863 C   0  0  0  0  0  0  0  0  0  0  0  0
  131.9332  129.9582  135.2054 C   0  0  0  0  0  0  0  0  0  0  0  0
  132.4369  129.0727  136.0859 N   0  0  0  0  0  0  0  0  0  0  0  0
  133.7744  127.3753  138.0970 N   0  0  0  0  0  0  0  0  0  0  0  0
  133.9732  126.4988  139.0434 O   0  0  0  0  0  0  0  0  0  0  0  0
  134.0741  124.9268  141.3717 C   0  0  0  0  0  0  0  0  0  0  0  0
  134.7177  124.0044  140.3393 C   0  0  1  0  0  0  0  0  0  0  0  0
  135.8532  123.3681  141.0291 N   0  0  0  0  0  0  0  0  0  0  0  0
  1  2  2  0
  2  3  1  0
  3  4  1  0
  4  5  1  0
  5  6  2  0
  6  7  1  0
  7  8  1  0
  8  9  2  0
  9 10  1  0
  2 11  1  0
 11 12  1  0
 12 13  1  0
 13 14  1  0
 14 15  1  6
 15 16  2  0
 16 17  1  0
 17 18  1  0
 18 19  2  0
 19 20  1  0
 20 21  2  0
 21 22  1  0
 22 23  2  0
 17 24  2  0
 24 25  1  0
 14 26  1  0
 26 27  1  0
 27 28  1  1
  6  4  1  0
 10  5  1  0
 27 11  1  0
 25 15  1  0
 23 18  1  0
M  END
>  <docking_score>  (3) 
-8.0340000000000007

$$$$
