
     RDKit          3D

 21 23  0  0  0  0  0  0  0  0999 V2000
  124.3073  123.2279  145.3124 O   0  0  0  0  0  0  0  0  0  0  0  0
  124.5101  124.0285  144.3648 C   0  0  0  0  0  0  0  0  0  0  0  0
  125.9007  124.0730  144.0393 N   0  0  0  0  0  0  0  0  0  0  0  0
  126.6755  125.0805  143.3550 C   0  0  0  0  0  0  0  0  0  0  0  0
  127.9775  124.8958  143.7815 C   0  0  0  0  0  0  0  0  0  0  0  0
  129.0015  125.6974  143.3221 C   0  0  0  0  0  0  0  0  0  0  0  0
  130.6608  125.4655  143.8626 Cl  0  0  0  0  0  0  0  0  0  0  0  0
  128.6651  126.6866  142.4217 C   0  0  0  0  0  0  0  0  0  0  0  0
  127.3718  126.8747  141.9942 C   0  0  0  0  0  0  0  0  0  0  0  0
  127.0267  127.8444  141.1084 F   0  0  0  0  0  0  0  0  0  0  0  0
  126.3329  126.0686  142.4543 C   0  0  0  0  0  0  0  0  0  0  0  0
  123.3365  124.6830  143.8551 N   0  0  0  0  0  0  0  0  0  0  0  0
  123.0308  125.3266  142.6115 C   0  0  0  0  0  0  0  0  0  0  0  0
  121.6412  125.1416  142.1108 C   0  0  0  0  0  0  0  0  0  0  0  0
  121.7632  125.5776  140.7025 C   0  0  0  0  0  0  0  0  0  0  0  0
  122.9213  126.4854  140.6275 C   0  0  0  0  0  0  0  0  0  0  0  0
  123.7451  126.0656  141.7984 C   0  0  0  0  0  0  0  0  0  0  0  0
  125.1256  126.5439  141.8036 C   0  0  0  0  0  0  0  0  0  0  0  0
  125.3310  127.5681  141.1152 O   0  0  0  0  0  0  0  0  0  0  0  0
  120.9792  125.2158  139.7129 C   0  0  0  0  0  0  0  0  0  0  0  0
  119.5113  124.0270  139.9650 Br  0  0  0  0  0  0  0  0  0  0  0  0
  1  2  2  0
  2  3  1  0
  3  4  1  0
  4  5  2  0
  5  6  1  0
  6  7  1  0
  6  8  2  0
  8  9  1  0
  9 10  1  0
  9 11  2  0
  2 12  1  0
 12 13  1  0
 13 14  1  0
 14 15  1  0
 15 16  1  0
 16 17  1  0
 17 18  1  0
 18 19  2  0
 15 20  2  3
 20 21  1  0
 11  4  1  0
 18 11  1  0
 13 17  2  0
M  END
>  <docking_score>  (1) 
-7.6340000000000003

$$$$

     RDKit          3D

 21 23  0  0  0  0  0  0  0  0999 V2000
  136.6969  118.5773  132.0742 O   0  0  0  0  0  0  0  0  0  0  0  0
  137.1195  117.7989  132.9661 C   0  0  0  0  0  0  0  0  0  0  0  0
  136.5511  118.1372  134.2326 N   0  0  0  0  0  0  0  0  0  0  0  0
  136.9991  117.8457  135.5735 C   0  0  0  0  0  0  0  0  0  0  0  0
  136.4309  118.8214  136.3713 C   0  0  0  0  0  0  0  0  0  0  0  0
  136.6502  118.8499  137.7327 C   0  0  0  0  0  0  0  0  0  0  0  0
  135.9286  120.0904  138.7522 Cl  0  0  0  0  0  0  0  0  0  0  0  0
  137.4594  117.8632  138.2562 C   0  0  0  0  0  0  0  0  0  0  0  0
  138.0271  116.8904  137.4673 C   0  0  0  0  0  0  0  0  0  0  0  0
  138.8255  115.9134  137.9694 F   0  0  0  0  0  0  0  0  0  0  0  0
  137.8097  116.8560  136.0917 C   0  0  0  0  0  0  0  0  0  0  0  0
  138.0397  116.7920  132.5134 N   0  0  0  0  0  0  0  0  0  0  0  0
  138.4498  115.5247  133.0426 C   0  0  0  0  0  0  0  0  0  0  0  0
  138.7039  114.4552  132.0387 C   0  0  0  0  0  0  0  0  0  0  0  0
  138.7263  113.2415  132.8843 C   0  0  0  0  0  0  0  0  0  0  0  0
  139.0767  113.6698  134.2498 C   0  0  0  0  0  0  0  0  0  0  0  0
  138.6514  115.0997  134.2658 C   0  0  0  0  0  0  0  0  0  0  0  0
  138.5504  115.7140  135.5875 C   0  0  0  0  0  0  0  0  0  0  0  0
  139.2311  115.1605  136.4794 O   0  0  0  0  0  0  0  0  0  0  0  0
  138.4782  112.0165  132.4810 C   0  0  0  0  0  0  0  0  0  0  0  0
  138.0358  111.6149  130.6714 Br  0  0  0  0  0  0  0  0  0  0  0  0
  1  2  2  0
  2  3  1  0
  3  4  1  0
  4  5  2  0
  5  6  1  0
  6  7  1  0
  6  8  2  0
  8  9  1  0
  9 10  1  0
  9 11  2  0
  2 12  1  0
 12 13  1  0
 13 14  1  0
 14 15  1  0
 15 16  1  0
 16 17  1  0
 17 18  1  0
 18 19  2  0
 15 20  2  3
 20 21  1  0
 11  4  1  0
 18 11  1  0
 13 17  2  0
M  END
>  <docking_score>  (2) 
-7.4260000000000002

$$$$

     RDKit          3D

 21 23  0  0  0  0  0  0  0  0999 V2000
  138.0068  131.5098  137.8578 O   0  0  0  0  0  0  0  0  0  0  0  0
  138.8378  132.2547  137.2793 C   0  0  0  0  0  0  0  0  0  0  0  0
  138.3375  132.6636  136.0049 N   0  0  0  0  0  0  0  0  0  0  0  0
  139.0284  133.1474  134.8335 C   0  0  0  0  0  0  0  0  0  0  0  0
  138.1865  132.8751  133.7713 C   0  0  0  0  0  0  0  0  0  0  0  0
  138.5343  133.2081  132.4789 C   0  0  0  0  0  0  0  0  0  0  0  0
  137.4652  132.8631  131.1235 Cl  0  0  0  0  0  0  0  0  0  0  0  0
  139.7561  133.8225  132.2990 C   0  0  0  0  0  0  0  0  0  0  0  0
  140.5973  134.0957  133.3518 C   0  0  0  0  0  0  0  0  0  0  0  0
  141.8025  134.6999  133.1890 F   0  0  0  0  0  0  0  0  0  0  0  0
  140.2520  133.7619  134.6595 C   0  0  0  0  0  0  0  0  0  0  0  0
  140.0478  132.5066  138.0127 N   0  0  0  0  0  0  0  0  0  0  0  0
  141.0417  133.5372  137.9466 C   0  0  0  0  0  0  0  0  0  0  0  0
  141.6219  133.9620  139.2501 C   0  0  0  0  0  0  0  0  0  0  0  0
  142.2868  135.2332  138.8889 C   0  0  0  0  0  0  0  0  0  0  0  0
  142.5729  135.1787  137.4445 C   0  0  0  0  0  0  0  0  0  0  0  0
  141.5595  134.2046  136.9447 C   0  0  0  0  0  0  0  0  0  0  0  0
  141.3569  134.1902  135.4978 C   0  0  0  0  0  0  0  0  0  0  0  0
  142.3163  134.6315  134.8270 O   0  0  0  0  0  0  0  0  0  0  0  0
  142.5646  136.2186  139.7114 C   0  0  0  0  0  0  0  0  0  0  0  0
  142.1309  136.1444  141.5655 Br  0  0  0  0  0  0  0  0  0  0  0  0
  1  2  2  0
  2  3  1  0
  3  4  1  0
  4  5  2  0
  5  6  1  0
  6  7  1  0
  6  8  2  0
  8  9  1  0
  9 10  1  0
  9 11  2  0
  2 12  1  0
 12 13  1  0
 13 14  1  0
 14 15  1  0
 15 16  1  0
 16 17  1  0
 17 18  1  0
 18 19  2  0
 15 20  2  3
 20 21  1  0
 11  4  1  0
 18 11  1  0
 13 17  2  0
M  END
>  <docking_score>  (3) 
-7.4100000000000001

$$$$
