
     RDKit          3D

 25 28  0  0  0  0  0  0  0  0999 V2000
  141.6854  136.9573  138.3069 O   0  0  0  0  0  0  0  0  0  0  0  0
  141.8343  135.7624  138.6472 C   0  0  0  0  0  0  0  0  0  0  0  0
  142.5509  135.4148  139.8398 N   0  0  0  0  0  0  0  0  0  0  0  0
  143.0916  136.5431  140.6027 C   0  0  1  0  0  0  0  0  0  0  0  0
  143.6064  136.0819  141.9823 C   0  0  0  0  0  0  0  0  0  0  0  0
  144.5974  136.2328  140.9120 C   0  0  2  0  0  0  0  0  0  0  0  0
  145.4740  137.4191  140.8488 C   0  0  0  0  0  0  0  0  0  0  0  0
  146.6010  137.4464  141.6430 C   0  0  0  0  0  0  0  0  0  0  0  0
  147.4450  138.5314  141.6200 C   0  0  0  0  0  0  0  0  0  0  0  0
  147.1530  139.5795  140.8022 C   0  0  0  0  0  0  0  0  0  0  0  0
  146.0319  139.5688  140.0023 C   0  0  0  0  0  0  0  0  0  0  0  0
  145.1807  138.4955  140.0133 C   0  0  0  0  0  0  0  0  0  0  0  0
  141.2641  134.7785  137.7997 N   0  0  0  0  0  0  0  0  0  0  0  0
  140.5449  135.1018  136.6060 C   0  0  0  0  0  0  0  0  0  0  0  0
  139.9124  133.9667  135.8988 C   0  0  1  0  0  0  0  0  0  0  0  0
  139.6510  134.1959  134.4424 C   0  0  0  0  0  0  0  0  0  0  0  0
  140.9391  134.0402  133.6619 C   0  0  0  0  0  0  0  0  0  0  0  0
  142.0116  134.6088  134.1161 N   0  0  0  0  0  0  0  0  0  0  0  0
  143.2051  134.4250  133.3402 C   0  0  0  0  0  0  0  0  0  0  0  0
  144.1406  133.6586  134.1991 C   0  0  0  0  0  0  0  0  0  0  0  0
  143.6463  132.7551  134.9916 C   0  0  0  0  0  0  0  0  0  0  0  0
  143.6504  131.6937  136.0041 C   0  0  0  0  0  0  0  0  0  0  0  0
  142.5150  132.1783  135.3661 C   0  0  0  0  0  0  0  0  0  0  0  0
  141.0818  132.2179  135.1056 C   0  0  0  0  0  0  0  0  0  0  0  0
  140.4152  132.7278  136.2073 O   0  0  0  0  0  0  0  0  0  0  0  0
  1  2  2  0
  2  3  1  0
  4  3  1  6
  4  5  1  0
  5  6  1  0
  6  7  1  1
  7  8  2  0
  8  9  1  0
  9 10  2  0
 10 11  1  0
 11 12  2  0
  2 13  1  0
 13 14  1  0
 15 14  1  6
 15 16  1  0
 16 17  1  0
 17 18  2  3
 18 19  1  0
 19 20  1  0
 20 21  2  3
 21 22  1  0
 22 23  2  0
 23 24  1  0
 24 25  1  0
  6  4  1  0
 12  7  1  0
 25 15  1  0
 23 21  1  0
M  END
>  <docking_score>  (1) 
-8.0960000000000001

$$$$

     RDKit          3D

 25 28  0  0  0  0  0  0  0  0999 V2000
  135.8716  120.1168  138.3770 O   0  0  0  0  0  0  0  0  0  0  0  0
  136.9155  119.8899  139.0287 C   0  0  0  0  0  0  0  0  0  0  0  0
  137.0843  120.3981  140.3591 N   0  0  0  0  0  0  0  0  0  0  0  0
  135.9685  121.1947  140.8767 C   0  0  1  0  0  0  0  0  0  0  0  0
  136.4796  122.4620  141.5935 C   0  0  0  0  0  0  0  0  0  0  0  0
  136.0384  122.6091  140.2029 C   0  0  2  0  0  0  0  0  0  0  0  0
  134.7155  123.1802  139.8809 C   0  0  0  0  0  0  0  0  0  0  0  0
  134.6445  124.5076  139.5143 C   0  0  0  0  0  0  0  0  0  0  0  0
  133.4342  125.0836  139.2087 C   0  0  0  0  0  0  0  0  0  0  0  0
  132.3056  124.3255  139.2732 C   0  0  0  0  0  0  0  0  0  0  0  0
  132.3583  122.9982  139.6373 C   0  0  0  0  0  0  0  0  0  0  0  0
  133.5562  122.4091  139.9448 C   0  0  0  0  0  0  0  0  0  0  0  0
  137.9144  119.1124  138.3891 N   0  0  0  0  0  0  0  0  0  0  0  0
  137.7676  118.5948  137.0635 C   0  0  0  0  0  0  0  0  0  0  0  0
  137.0910  117.2843  136.9470 C   0  0  1  0  0  0  0  0  0  0  0  0
  135.7402  117.3255  136.3023 C   0  0  0  0  0  0  0  0  0  0  0  0
  135.8946  117.4448  134.8008 C   0  0  0  0  0  0  0  0  0  0  0  0
  136.7455  118.3025  134.3316 N   0  0  0  0  0  0  0  0  0  0  0  0
  136.8554  118.3710  132.9020 C   0  0  0  0  0  0  0  0  0  0  0  0
  138.2360  117.9386  132.5741 C   0  0  0  0  0  0  0  0  0  0  0  0
  138.7744  117.0028  133.2974 C   0  0  0  0  0  0  0  0  0  0  0  0
  139.8063  116.0596  133.7413 C   0  0  0  0  0  0  0  0  0  0  0  0
  138.5468  116.1863  134.3144 C   0  0  0  0  0  0  0  0  0  0  0  0
  137.5112  115.8373  135.2783 C   0  0  0  0  0  0  0  0  0  0  0  0
  137.8903  116.2432  136.5470 O   0  0  0  0  0  0  0  0  0  0  0  0
  1  2  2  0
  2  3  1  0
  4  3  1  6
  4  5  1  0
  5  6  1  0
  6  7  1  1
  7  8  2  0
  8  9  1  0
  9 10  2  0
 10 11  1  0
 11 12  2  0
  2 13  1  0
 13 14  1  0
 15 14  1  6
 15 16  1  0
 16 17  1  0
 17 18  2  3
 18 19  1  0
 19 20  1  0
 20 21  2  3
 21 22  1  0
 22 23  2  0
 23 24  1  0
 24 25  1  0
  6  4  1  0
 12  7  1  0
 25 15  1  0
 23 21  1  0
M  END
>  <docking_score>  (2) 
-7.7229999999999999

$$$$

     RDKit          3D

 25 28  0  0  0  0  0  0  0  0999 V2000
  138.2036  117.7122  135.9129 O   0  0  0  0  0  0  0  0  0  0  0  0
  136.9721  117.9237  135.8455 C   0  0  0  0  0  0  0  0  0  0  0  0
  136.1626  117.2808  134.8515 N   0  0  0  0  0  0  0  0  0  0  0  0
  136.8779  116.3874  133.9363 C   0  0  1  0  0  0  0  0  0  0  0  0
  136.6601  114.9096  134.3232 C   0  0  0  0  0  0  0  0  0  0  0  0
  135.8180  115.4547  133.2536 C   0  0  2  0  0  0  0  0  0  0  0  0
  136.1074  115.1646  131.8351 C   0  0  0  0  0  0  0  0  0  0  0  0
  137.4131  115.2502  131.4001 C   0  0  0  0  0  0  0  0  0  0  0  0
  137.7298  114.9922  130.0874 C   0  0  0  0  0  0  0  0  0  0  0  0
  136.7363  114.6511  129.2219 C   0  0  0  0  0  0  0  0  0  0  0  0
  135.4269  114.5608  129.6394 C   0  0  0  0  0  0  0  0  0  0  0  0
  135.0945  114.8146  130.9439 C   0  0  0  0  0  0  0  0  0  0  0  0
  136.4235  118.8249  136.7933 N   0  0  0  0  0  0  0  0  0  0  0  0
  137.2113  119.4770  137.7937 C   0  0  0  0  0  0  0  0  0  0  0  0
  137.2551  118.8207  139.1188 C   0  0  1  0  0  0  0  0  0  0  0  0
  138.3130  119.3359  140.0447 C   0  0  0  0  0  0  0  0  0  0  0  0
  137.8678  120.6520  140.6465 C   0  0  0  0  0  0  0  0  0  0  0  0
  137.3487  121.5466  139.8654 N   0  0  0  0  0  0  0  0  0  0  0  0
  136.9394  122.7732  140.4884 C   0  0  0  0  0  0  0  0  0  0  0  0
  135.4669  122.8467  140.3250 C   0  0  0  0  0  0  0  0  0  0  0  0
  134.7864  121.7413  140.3870 C   0  0  0  0  0  0  0  0  0  0  0  0
  133.6001  120.8788  140.3659 C   0  0  0  0  0  0  0  0  0  0  0  0
  134.9010  120.4351  140.5704 C   0  0  0  0  0  0  0  0  0  0  0  0
  135.9055  119.4089  140.8180 C   0  0  0  0  0  0  0  0  0  0  0  0
  136.0348  118.5958  139.7044 O   0  0  0  0  0  0  0  0  0  0  0  0
  1  2  2  0
  2  3  1  0
  4  3  1  1
  4  5  1  0
  5  6  1  0
  6  7  1  6
  7  8  2  0
  8  9  1  0
  9 10  2  0
 10 11  1  0
 11 12  2  0
  2 13  1  0
 13 14  1  0
 15 14  1  6
 15 16  1  0
 16 17  1  0
 17 18  2  3
 18 19  1  0
 19 20  1  0
 20 21  2  3
 21 22  1  0
 22 23  2  0
 23 24  1  0
 24 25  1  0
  6  4  1  0
 12  7  1  0
 25 15  1  0
 23 21  1  0
M  END
>  <docking_score>  (3) 
-7.6340000000000003

$$$$
