
     RDKit          3D

 73 77  0  0  0  0  0  0  0  0999 V2000
    7.7560   11.2022    3.9206 C   0  0  1  0  0  0  0  0  0  0  0  0
    7.4231   10.5418    2.5983 C   0  0  1  0  0  0  0  0  0  0  0  0
    6.3799    9.4797    2.7225 C   0  0  0  0  0  0  0  0  0  0  0  0
    6.8484   11.6425    1.7087 C   0  0  0  0  0  0  0  0  0  0  0  0
    7.4658   11.6249    0.3365 C   0  0  0  0  0  0  0  0  0  0  0  0
    7.5779   13.0682   -0.1259 C   0  0  0  0  0  0  0  0  0  0  0  0
    8.8638   13.6172    0.4278 C   0  0  1  0  0  0  0  0  0  0  0  0
    9.9271   13.6752   -0.6242 C   0  0  0  0  0  0  0  0  0  0  0  0
    8.6831   14.9192    1.1579 C   0  0  0  0  0  3  0  0  0  0  0  0
   10.0149   15.3216    1.7331 C   0  0  0  0  0  0  0  0  0  0  0  0
    9.9142   16.0577    3.0290 C   0  0  0  0  0  0  0  0  0  0  0  0
   11.1325   15.8399    3.9175 C   0  0  2  0  0  0  0  0  0  0  0  0
   12.0540   14.8447    3.2739 C   0  0  0  0  0  2  0  0  0  0  0  0
   10.7682   15.3957    5.2970 C   0  0  0  0  0  3  0  0  0  0  0  0
   11.3721   14.0400    5.5688 C   0  0  0  0  0  0  0  0  0  0  0  0
   11.1908   13.5901    6.9914 C   0  0  0  0  0  0  0  0  0  0  0  0
   10.1125   12.5241    7.1069 C   0  0  1  0  0  0  0  0  0  0  0  0
    9.1967   12.9190    8.2442 C   0  0  0  0  0  0  0  0  0  0  0  0
    9.4880   14.3243    8.7284 C   0  0  0  0  0  0  0  0  0  0  0  0
   10.0038   14.2366   10.1516 C   0  0  1  0  0  0  0  0  0  0  0  0
   10.6748   15.4138   10.4976 O   0  0  0  0  0  0  0  0  0  0  0  0
    8.8859   13.9234   11.1185 C   0  0  2  0  0  0  0  0  0  0  0  0
    8.8474   14.8886   12.2767 C   0  0  2  0  0  0  0  0  0  0  0  0
    7.5824   15.6786   12.3572 C   0  0  0  0  0  0  0  0  0  0  0  0
    9.9960   15.6598   12.3787 O   0  0  0  0  0  0  0  0  0  0  0  0
   10.2448   15.8741   13.7238 C   0  0  0  0  0  2  0  0  0  0  0  0
    9.3057   12.5037    5.8825 C   0  0  0  0  0  0  0  0  0  0  0  0
    9.9798   12.2706    4.4918 C   0  0  0  0  0  0  0  0  0  0  0  0
    8.6929   12.3473    3.6075 C   0  0  2  0  0  0  0  0  0  0  0  0
    8.0506   13.5547    4.3889 C   0  0  0  0  0  0  0  0  0  0  0  0
    8.0735   12.6373    5.6650 C   0  0  0  0  0  0  0  0  0  0  0  0
    6.7399   12.2184    5.9826 C   0  0  0  0  0  0  0  0  0  0  0  0
    6.4155   11.5649    4.5409 C   0  0  2  0  0  0  0  0  0  0  0  0
    5.7773   10.2480    4.9320 C   0  0  0  0  0  0  0  0  0  0  0  0
    6.3592    9.7321    6.2321 C   0  0  1  0  0  0  0  0  0  0  0  0
    5.2364    9.6400    7.2246 C   0  0  0  0  0  0  0  0  0  0  0  0
    6.8553    8.3291    5.9682 C   0  0  0  0  0  0  0  0  0  0  0  0
    8.2342    8.0777    6.4805 C   0  0  0  0  0  0  0  0  0  0  0  0
    8.6993    6.7431    5.9081 C   0  0  1  0  0  0  0  0  0  0  0  0
    9.7362    6.8783    5.0174 O   0  0  0  0  0  0  0  0  0  0  0  0
    8.9090    5.7053    6.9603 C   0  0  1  0  0  0  0  0  0  0  0  0
    8.6106    4.3391    6.3335 C   0  0  0  0  0  2  0  0  0  0  0  0
   10.3485    5.7552    7.4015 C   0  0  2  0  0  0  0  0  0  0  0  0
   11.1587    4.6387    6.7987 C   0  0  0  0  0  0  0  0  0  0  0  0
   11.1596    4.7892    5.3086 C   0  0  0  0  0  0  0  0  0  0  0  0
   10.3762    5.7257    8.9170 C   0  0  0  0  0  3  0  0  0  0  0  0
   11.4385    6.7180    9.3518 C   0  0  0  0  0  0  0  0  0  0  0  0
   11.4147    6.8367   10.8617 C   0  0  0  0  0  0  0  0  0  0  0  0
   12.7107    7.4903   11.2856 C   0  0  1  0  0  0  0  0  0  0  0  0
   13.8396    6.6046   10.7668 C   0  0  0  0  0  2  0  0  0  0  0  0
   12.8784    8.8353   10.5982 C   0  0  0  0  0  0  0  0  0  0  0  0
   11.6976    9.7460   10.8648 C   0  0  0  0  0  0  0  0  0  0  0  0
   11.6152    9.9315   12.3714 C   0  0  1  0  0  0  0  0  0  0  0  0
   12.9245   10.2757   12.8862 N   0  0  0  0  0  0  0  0  0  0  0  0
   10.5942   10.9458   12.7734 C   0  0  0  0  0  0  0  0  0  0  0  0
   10.4351   12.0649   11.7714 C   0  0  0  0  0  0  0  0  0  0  0  0
    9.0172   12.5347   11.6712 C   0  0  1  0  0  0  0  0  0  0  0  0
    8.2933   12.3798   12.9989 C   0  0  0  0  0  0  0  0  0  0  0  0
    6.8672   11.9545   12.6503 C   0  0  1  0  0  0  0  0  0  0  0  0
    6.1280   13.2115   12.2649 C   0  0  0  0  0  0  0  0  0  0  0  0
    6.9072   11.0485   11.4420 C   0  0  0  0  0  3  0  0  0  0  0  0
    5.7476   11.3961   10.5521 C   0  0  0  0  0  0  0  0  0  0  0  0
    5.5602   10.3252    9.4808 C   0  0  0  0  0  0  0  0  0  0  0  0
    4.5001    9.3821    9.9510 C   0  0  1  0  0  0  0  0  0  0  0  0
    3.2143   10.1644   10.1110 C   0  0  0  0  0  0  0  0  0  0  0  0
    3.3083   11.1751   11.2291 C   0  0  0  0  0  3  0  0  0  0  0  0
    3.7008   12.5273   10.6683 C   0  0  0  0  0  0  0  0  0  0  0  0
    3.5788   13.5366   11.8169 C   0  0  0  0  0  2  0  0  0  0  0  0
    4.2752    8.2221    9.0427 C   0  0  2  0  0  0  0  0  0  0  0  0
    4.4789    6.9214    9.7507 C   0  0  0  0  0  0  0  0  0  0  0  0
    5.0764    8.2463    7.7862 C   0  0  1  0  0  0  0  0  0  0  0  0
    4.3679    7.1051    6.6072 S   0  0  0  0  0  0  0  0  0  0  0  0
    5.2366    6.8870    5.3983 O   0  0  0  0  0  0  0  0  0  0  0  0
  1  2  1  6
  2  3  1  1
  2  4  1  0
  4  5  1  0
  5  6  1  0
  6  7  1  0
  7  8  1  6
  7  9  1  0
  9 10  1  0
 10 11  1  0
 11 12  1  0
 12 13  1  6
 12 14  1  0
 14 15  1  0
 15 16  1  0
 17 16  1  6
 17 18  1  0
 18 19  1  0
 19 20  1  0
 20 21  1  1
 20 22  1  0
 22 23  1  1
 23 24  1  6
 23 25  1  0
 25 26  1  0
 17 27  1  0
 27 28  1  0
 29 28  1  1
 29 30  1  0
 30 31  1  0
 31 32  1  0
 32 33  1  0
 33 34  1  1
 35 34  1  6
 35 36  1  0
 35 37  1  0
 37 38  1  0
 38 39  1  0
 39 40  1  1
 39 41  1  0
 41 42  1  6
 41 43  1  0
 43 44  1  6
 44 45  1  0
 43 46  1  0
 46 47  1  0
 47 48  1  0
 48 49  1  0
 49 50  1  6
 49 51  1  0
 51 52  1  0
 52 53  1  0
 53 54  1  6
 53 55  1  0
 55 56  1  0
 57 56  1  1
 57 58  1  0
 58 59  1  0
 59 60  1  6
 59 61  1  0
 61 62  1  0
 62 63  1  0
 63 64  1  0
 64 65  1  6
 65 66  1  0
 66 67  1  0
 67 68  1  0
 64 69  1  0
 69 70  1  1
 69 71  1  0
 71 72  1  6
 72 73  2  0
 29  1  1  0
 33  1  1  0
 57 22  1  0
 27 31  2  0
 71 36  1  0
M  RAD  8   9   2  13   3  14   2  26   3  42   3  46   2  50   3  61   2
M  RAD  2  66   2  68   3
M  END
>  <docking_score>  (1) 
185.53200000000001

$$$$
