
     RDKit          3D

 24 24  0  0  0  0  0  0  0  0999 V2000
   16.0337   -1.8510   -2.7560 C   0  0  0  0  0  0  0  0  0  0  0  0
   15.4269   -2.6811   -3.8696 C   0  0  1  0  0  0  0  0  0  0  0  0
   14.4578   -1.8117   -4.6147 C   0  0  0  0  0  0  0  0  0  0  0  0
   15.2151   -0.8410   -5.4595 C   0  0  2  0  0  0  0  0  0  0  0  0
   14.4789    0.1793   -5.9973 O   0  0  0  0  0  0  0  0  0  0  0  0
   15.9553   -1.6698   -6.5164 C   0  0  2  0  0  0  0  0  0  0  0  0
   15.0903   -2.6652   -6.9828 O   0  0  0  0  0  0  0  0  0  0  0  0
   17.0733   -2.3628   -5.7594 C   0  0  1  0  0  0  0  0  0  0  0  0
   17.7914   -1.3192   -5.1252 O   0  0  0  0  0  0  0  0  0  0  0  0
   16.5331   -3.2488   -4.6894 C   0  0  1  0  0  0  0  0  0  0  0  0
   17.6017   -3.6577   -3.7848 N   0  0  0  0  0  0  0  0  0  0  0  0
   17.9017   -5.0449   -3.9951 C   0  0  0  0  0  3  0  0  0  0  0  0
   19.3486   -5.1096   -4.4926 C   0  0  0  0  0  0  0  0  0  0  0  0
   19.3435   -5.7809   -5.8665 C   0  0  2  0  0  0  0  0  0  0  0  0
   20.2840   -6.8061   -5.8812 O   0  0  0  0  0  0  0  0  0  0  0  0
   19.6193   -4.7412   -6.9363 C   0  0  0  0  0  0  0  0  0  0  0  0
   20.3589   -3.7155   -6.3145 O   0  0  0  0  0  0  0  0  0  0  0  0
   17.9790   -6.3730   -6.1461 C   0  0  1  0  0  0  0  0  0  0  0  0
   17.3774   -5.7741   -7.2492 O   0  0  0  0  0  0  0  0  0  0  0  0
   18.1382   -7.8499   -6.3595 C   0  0  2  0  0  0  0  0  0  0  0  0
   17.7449   -8.2046   -7.6468 O   0  0  0  0  0  0  0  0  0  0  0  0
   17.2963   -8.6541   -5.3843 C   0  0  0  0  0  0  0  0  0  0  0  0
   17.0339   -9.9345   -5.8683 O   0  0  0  0  0  0  0  0  0  0  0  0
   16.1149   -7.9590   -5.1204 O   0  0  0  0  0  0  0  0  0  0  0  0
  2  1  1  1
  2  3  1  0
  3  4  1  0
  4  5  1  6
  4  6  1  0
  6  7  1  1
  6  8  1  0
  8  9  1  1
  8 10  1  0
 10 11  1  1
 11 12  1  0
 12 13  1  0
 13 14  1  0
 14 15  1  1
 14 16  1  0
 16 17  1  0
 14 18  1  0
 18 19  1  6
 18 20  1  0
 20 21  1  6
 20 22  1  0
 22 23  1  0
 22 24  1  0
 10  2  1  0
M  RAD  1  12   2
M  END
>  <docking_score>  (1) 
-3.621

$$$$

     RDKit          3D

 24 24  0  0  0  0  0  0  0  0999 V2000
   15.5561   -1.2646   -2.9234 C   0  0  0  0  0  0  0  0  0  0  0  0
   15.2209   -2.3624   -3.9132 C   0  0  1  0  0  0  0  0  0  0  0  0
   14.1422   -1.8491   -4.8205 C   0  0  0  0  0  0  0  0  0  0  0  0
   14.7308   -0.8682   -5.7801 C   0  0  2  0  0  0  0  0  0  0  0  0
   13.8323   -0.1273   -6.4984 O   0  0  0  0  0  0  0  0  0  0  0  0
   15.7036   -1.6566   -6.6656 C   0  0  2  0  0  0  0  0  0  0  0  0
   15.1071   -2.8768   -6.9999 O   0  0  0  0  0  0  0  0  0  0  0  0
   16.8886   -1.9649   -5.7689 C   0  0  1  0  0  0  0  0  0  0  0  0
   17.3199   -0.7065   -5.2819 O   0  0  0  0  0  0  0  0  0  0  0  0
   16.4775   -2.7830   -4.5927 C   0  0  1  0  0  0  0  0  0  0  0  0
   17.5431   -2.8070   -3.5969 N   0  0  0  0  0  0  0  0  0  0  0  0
   17.8431   -4.1665   -3.2502 C   0  0  0  0  0  3  0  0  0  0  0  0
   18.9417   -4.6312   -4.2105 C   0  0  0  0  0  0  0  0  0  0  0  0
   19.2495   -6.0963   -3.8987 C   0  0  2  0  0  0  0  0  0  0  0  0
   18.3673   -6.5549   -2.9255 O   0  0  0  0  0  0  0  0  0  0  0  0
   20.6962   -6.2250   -3.4606 C   0  0  0  0  0  0  0  0  0  0  0  0
   21.3803   -5.1249   -4.0150 O   0  0  0  0  0  0  0  0  0  0  0  0
   19.0733   -6.9367   -5.1451 C   0  0  1  0  0  0  0  0  0  0  0  0
   20.0584   -7.9148   -5.2464 O   0  0  0  0  0  0  0  0  0  0  0  0
   17.7065   -7.5554   -5.1099 C   0  0  2  0  0  0  0  0  0  0  0  0
   17.7960   -8.9443   -5.1349 O   0  0  0  0  0  0  0  0  0  0  0  0
   16.8639   -7.1283   -6.2991 C   0  0  0  0  0  0  0  0  0  0  0  0
   17.6480   -6.9076   -7.4300 O   0  0  0  0  0  0  0  0  0  0  0  0
   16.1352   -5.9881   -5.9560 O   0  0  0  0  0  0  0  0  0  0  0  0
  2  1  1  1
  2  3  1  0
  3  4  1  0
  4  5  1  6
  4  6  1  0
  6  7  1  1
  6  8  1  0
  8  9  1  1
  8 10  1  0
 10 11  1  1
 11 12  1  0
 12 13  1  0
 13 14  1  0
 14 15  1  1
 14 16  1  0
 16 17  1  0
 14 18  1  0
 18 19  1  1
 18 20  1  0
 20 21  1  6
 20 22  1  0
 22 23  1  0
 22 24  1  0
 10  2  1  0
M  RAD  1  12   2
M  END
>  <docking_score>  (2) 
-3.282

$$$$

     RDKit          3D

 24 24  0  0  0  0  0  0  0  0999 V2000
    5.5792   12.3839   11.1421 C   0  0  0  0  0  0  0  0  0  0  0  0
    5.5865   10.8687   11.1765 C   0  0  1  0  0  0  0  0  0  0  0  0
    5.7237   10.4425   12.6082 C   0  0  0  0  0  0  0  0  0  0  0  0
    4.4279   10.6664   13.3155 C   0  0  2  0  0  0  0  0  0  0  0  0
    4.4705   10.5665   14.6794 O   0  0  0  0  0  0  0  0  0  0  0  0
    3.4125    9.7125   12.6745 C   0  0  2  0  0  0  0  0  0  0  0  0
    4.0347    8.4765   12.4707 O   0  0  0  0  0  0  0  0  0  0  0  0
    3.1273   10.3045   11.3065 C   0  0  1  0  0  0  0  0  0  0  0  0
    2.7074   11.6335   11.5599 O   0  0  0  0  0  0  0  0  0  0  0  0
    4.3657   10.3763   10.4801 C   0  0  1  0  0  0  0  0  0  0  0  0
    4.1435   11.2174    9.3092 N   0  0  0  0  0  0  0  0  0  0  0  0
    3.4604   10.4608    8.2996 C   0  0  0  0  0  3  0  0  0  0  0  0
    4.5376    9.9119    7.3597 C   0  0  0  0  0  0  0  0  0  0  0  0
    4.0410   10.0848    5.9238 C   0  0  2  0  0  0  0  0  0  0  0  0
    2.7824   10.6779    5.9405 O   0  0  0  0  0  0  0  0  0  0  0  0
    4.0243    8.7356    5.2305 C   0  0  0  0  0  0  0  0  0  0  0  0
    4.2061    7.7672    6.2378 O   0  0  0  0  0  0  0  0  0  0  0  0
    4.9875   10.9815    5.1553 C   0  0  1  0  0  0  0  0  0  0  0  0
    5.5608   11.9462    5.9789 O   0  0  0  0  0  0  0  0  0  0  0  0
    6.0429   10.1236    4.5211 C   0  0  2  0  0  0  0  0  0  0  0  0
    7.2462   10.2353    5.2120 O   0  0  0  0  0  0  0  0  0  0  0  0
    6.3026   10.5233    3.0792 C   0  0  0  0  0  0  0  0  0  0  0  0
    6.5751   11.8854    2.9660 O   0  0  0  0  0  0  0  0  0  0  0  0
    5.2035   10.1589    2.2996 O   0  0  0  0  0  0  0  0  0  0  0  0
  2  1  1  1
  2  3  1  0
  3  4  1  0
  4  5  1  1
  4  6  1  0
  6  7  1  6
  6  8  1  0
  8  9  1  1
  8 10  1  0
 10 11  1  6
 11 12  1  0
 12 13  1  0
 13 14  1  0
 14 15  1  1
 14 16  1  0
 16 17  1  0
 14 18  1  0
 18 19  1  1
 18 20  1  0
 20 21  1  1
 20 22  1  0
 22 23  1  0
 22 24  1  0
 10  2  1  0
M  RAD  1  12   2
M  END
>  <docking_score>  (3) 
-2.98

$$$$
