
     RDKit          3D

 28 30  0  0  0  0  0  0  0  0999 V2000
    6.5162   14.3287    6.3973 C   0  0  0  0  0  0  0  0  0  0  0  0
    5.2581   13.6642    5.8868 C   0  0  2  0  0  0  0  0  0  0  0  0
    5.2015   12.1897    6.0574 C   0  0  0  0  0  0  0  0  0  0  0  0
    6.3640   11.5811    5.3328 C   0  0  0  0  0  0  0  0  0  0  0  0
    6.5377   11.9990    3.9240 C   0  0  2  0  0  0  0  0  0  0  0  0
    7.5028   11.1367    3.3522 O   0  0  0  0  0  0  0  0  0  0  0  0
    6.9928   13.3836    3.6738 C   0  0  2  0  0  0  0  0  0  0  0  0
    8.3217   13.6929    4.2354 C   0  0  0  0  0  0  0  0  0  0  0  0
    9.3866   13.9560    3.2329 C   0  0  0  0  0  0  0  0  0  0  0  0
    9.1727   15.3781    2.6973 C   0  0  0  0  0  0  0  0  0  0  0  0
    9.5353   15.3167    1.3364 O   0  0  0  0  0  0  0  0  0  0  0  0
    6.0256   14.3501    3.8060 O   0  0  0  0  0  0  0  0  0  0  0  0
    4.8819   13.9067    4.3877 C   0  0  2  0  0  0  0  0  0  0  0  0
    4.1731   14.5395    5.5030 C   0  0  2  0  0  0  0  0  0  0  0  0
    4.3246   15.8933    5.6701 O   0  0  0  0  0  0  0  0  0  0  0  0
    4.2461   12.7146    3.7831 C   0  0  2  0  0  0  0  0  0  0  0  0
    3.4194   12.0436    4.6561 O   0  0  0  0  0  0  0  0  0  0  0  0
    5.2436   11.8295    3.0837 C   0  0  1  0  0  0  0  0  0  0  0  0
    5.5893   12.5240    1.7632 C   0  0  0  0  0  0  0  0  0  0  0  0
    4.8936   10.4331    2.9358 C   0  0  1  0  0  0  0  0  0  0  0  0
    4.6527    9.6517    3.9581 O   0  0  0  0  0  0  0  0  0  0  0  0
    4.8592    8.3378    3.9760 C   0  0  0  0  0  0  0  0  0  0  0  0
    3.6984    7.5043    4.4387 C   0  0  0  0  0  0  0  0  0  0  0  0
    4.1351    6.1606    4.8846 C   0  0  0  0  0  0  0  0  0  0  0  0
    3.3694    5.2288    4.7394 O   0  0  0  0  0  0  0  0  0  0  0  0
    4.2129   10.1996    1.7633 O   0  0  0  0  0  0  0  0  0  0  0  0
    2.9158   10.2908    1.8777 O   0  0  0  0  0  0  0  0  0  0  0  0
    2.2582    9.3742    1.1306 N   0  0  0  0  0  0  0  0  0  0  0  0
  2  1  1  6
  2  3  1  0
  3  4  1  0
  4  5  1  0
  5  6  1  6
  5  7  1  0
  7  8  1  1
  8  9  1  0
  9 10  1  0
 10 11  1  0
  7 12  1  0
 13 12  1  6
 13 14  1  0
 14 15  1  6
 13 16  1  0
 16 17  1  1
 16 18  1  0
 18 19  1  6
 18 20  1  0
 20 21  1  1
 21 22  1  0
 22 23  1  0
 23 24  1  0
 24 25  2  0
 20 26  1  0
 26 27  1  0
 27 28  1  0
 13  2  1  0
 14  2  1  0
 18  5  1  0
M  END
>  <docking_score>  (1) 
-4.1200000000000001

$$$$

     RDKit          3D

 28 30  0  0  0  0  0  0  0  0999 V2000
   14.2733   -3.3622   -5.3353 C   0  0  0  0  0  0  0  0  0  0  0  0
   15.1268   -3.9577   -6.4315 C   0  0  2  0  0  0  0  0  0  0  0  0
   15.2816   -5.4344   -6.3882 C   0  0  0  0  0  0  0  0  0  0  0  0
   15.8990   -5.8106   -5.0752 C   0  0  0  0  0  0  0  0  0  0  0  0
   17.1354   -5.0838   -4.7108 C   0  0  2  0  0  0  0  0  0  0  0  0
   17.6942   -5.7504   -3.5950 O   0  0  0  0  0  0  0  0  0  0  0  0
   17.0052   -3.6577   -4.3418 C   0  0  2  0  0  0  0  0  0  0  0  0
   16.1642   -3.4160   -3.1538 C   0  0  0  0  0  0  0  0  0  0  0  0
   16.6501   -2.3486   -2.2412 C   0  0  0  0  0  0  0  0  0  0  0  0
   18.1737   -2.4961   -2.1311 C   0  0  0  0  0  0  0  0  0  0  0  0
   18.6876   -1.2106   -2.3968 O   0  0  0  0  0  0  0  0  0  0  0  0
   16.8477   -2.7924   -5.3970 O   0  0  0  0  0  0  0  0  0  0  0  0
   16.5845   -3.4084   -6.5779 C   0  0  2  0  0  0  0  0  0  0  0  0
   15.5055   -3.0729   -7.5107 C   0  0  2  0  0  0  0  0  0  0  0  0
   15.0345   -1.7838   -7.5054 O   0  0  0  0  0  0  0  0  0  0  0  0
   17.5284   -4.4668   -7.0018 C   0  0  2  0  0  0  0  0  0  0  0  0
   16.9763   -5.3535   -7.8989 O   0  0  0  0  0  0  0  0  0  0  0  0
   18.2088   -5.1259   -5.8313 C   0  0  1  0  0  0  0  0  0  0  0  0
   19.2718   -4.1408   -5.3360 C   0  0  0  0  0  0  0  0  0  0  0  0
   18.7055   -6.4704   -6.0311 C   0  0  1  0  0  0  0  0  0  0  0  0
   17.9163   -7.5116   -6.1140 O   0  0  0  0  0  0  0  0  0  0  0  0
   17.7370   -8.2444   -7.2095 C   0  0  0  0  0  0  0  0  0  0  0  0
   17.9853   -9.7175   -7.0530 C   0  0  0  0  0  0  0  0  0  0  0  0
   16.8948  -10.3773   -6.2976 C   0  0  0  0  0  0  0  0  0  0  0  0
   16.8661  -10.2411   -5.0908 O   0  0  0  0  0  0  0  0  0  0  0  0
   19.8737   -6.4796   -6.7579 O   0  0  0  0  0  0  0  0  0  0  0  0
   20.7620   -7.3300   -6.3203 O   0  0  0  0  0  0  0  0  0  0  0  0
   21.0277   -7.1783   -5.0022 N   0  0  0  0  0  0  0  0  0  0  0  0
  2  1  1  1
  2  3  1  0
  3  4  1  0
  4  5  1  0
  5  6  1  1
  5  7  1  0
  7  8  1  1
  8  9  1  0
  9 10  1  0
 10 11  1  0
  7 12  1  0
 13 12  1  1
 13 14  1  0
 14 15  1  1
 13 16  1  0
 16 17  1  1
 16 18  1  0
 18 19  1  1
 18 20  1  0
 20 21  1  6
 21 22  1  0
 22 23  1  0
 23 24  1  0
 24 25  2  0
 20 26  1  0
 26 27  1  0
 27 28  1  0
 13  2  1  0
 14  2  1  0
 18  5  1  0
M  END
>  <docking_score>  (2) 
-3.798

$$$$

     RDKit          3D

 28 30  0  0  0  0  0  0  0  0999 V2000
   15.0043   -1.1995   -3.3615 C   0  0  0  0  0  0  0  0  0  0  0  0
   14.7841   -1.6410   -4.7902 C   0  0  2  0  0  0  0  0  0  0  0  0
   14.5848   -3.1003   -4.9833 C   0  0  0  0  0  0  0  0  0  0  0  0
   15.7942   -3.8190   -4.4659 C   0  0  0  0  0  0  0  0  0  0  0  0
   17.0982   -3.3364   -4.9722 C   0  0  2  0  0  0  0  0  0  0  0  0
   18.0710   -4.2876   -4.5838 O   0  0  0  0  0  0  0  0  0  0  0  0
   17.5693   -2.0176   -4.4971 C   0  0  2  0  0  0  0  0  0  0  0  0
   17.7764   -1.9404   -3.0383 C   0  0  0  0  0  0  0  0  0  0  0  0
   18.9920   -1.2005   -2.6101 C   0  0  0  0  0  0  0  0  0  0  0  0
   19.9148   -2.2023   -1.9031 C   0  0  0  0  0  0  0  0  0  0  0  0
   19.0904   -3.3011   -1.5863 O   0  0  0  0  0  0  0  0  0  0  0  0
   16.9740   -0.9337   -5.0952 O   0  0  0  0  0  0  0  0  0  0  0  0
   15.8798   -1.2468   -5.8352 C   0  0  2  0  0  0  0  0  0  0  0  0
   14.5691   -0.5955   -5.7657 C   0  0  2  0  0  0  0  0  0  0  0  0
   14.5257    0.7083   -5.3392 O   0  0  0  0  0  0  0  0  0  0  0  0
   16.0517   -2.2921   -6.8689 C   0  0  2  0  0  0  0  0  0  0  0  0
   14.8671   -2.8949   -7.2280 O   0  0  0  0  0  0  0  0  0  0  0  0
   17.1501   -3.2618   -6.5218 C   0  0  1  0  0  0  0  0  0  0  0  0
   18.4715   -2.5368   -6.7940 C   0  0  0  0  0  0  0  0  0  0  0  0
   17.0743   -4.5805   -7.1130 C   0  0  1  0  0  0  0  0  0  0  0  0
   16.9846   -5.6730   -6.3973 O   0  0  0  0  0  0  0  0  0  0  0  0
   17.7499   -6.7496   -6.5540 C   0  0  0  0  0  0  0  0  0  0  0  0
   17.6793   -7.7631   -5.4477 C   0  0  0  0  0  0  0  0  0  0  0  0
   19.0296   -8.1705   -4.9942 C   0  0  0  0  0  0  0  0  0  0  0  0
   19.2454   -8.2194   -3.7997 O   0  0  0  0  0  0  0  0  0  0  0  0
   16.4540   -4.5539   -8.3407 O   0  0  0  0  0  0  0  0  0  0  0  0
   15.8389   -5.6639   -8.6465 O   0  0  0  0  0  0  0  0  0  0  0  0
   14.5106   -5.6138   -8.3931 N   0  0  0  0  0  0  0  0  0  0  0  0
  2  1  1  1
  2  3  1  0
  3  4  1  0
  4  5  1  0
  5  6  1  1
  5  7  1  0
  7  8  1  1
  8  9  1  0
  9 10  1  0
 10 11  1  0
  7 12  1  0
 13 12  1  1
 13 14  1  0
 14 15  1  1
 13 16  1  0
 16 17  1  1
 16 18  1  0
 18 19  1  1
 18 20  1  0
 20 21  1  1
 21 22  1  0
 22 23  1  0
 23 24  1  0
 24 25  2  0
 20 26  1  0
 26 27  1  0
 27 28  1  0
 13  2  1  0
 14  2  1  0
 18  5  1  0
M  END
>  <docking_score>  (3) 
-3.6299999999999999

$$$$
