
     RDKit          3D

 74 75  0  0  0  0  0  0  0  0999 V2000
   19.4975   -3.6674   -6.1341 C   0  0  0  0  0  0  0  0  0  0  0  0
   19.1698   -2.4227   -6.9416 C   0  0  0  0  0  0  0  0  0  0  0  0
   20.0570   -1.2756   -6.5600 C   0  0  0  0  0  0  0  0  0  0  0  0
   17.6978   -2.0630   -6.8040 C   0  0  0  0  0  0  0  0  0  0  0  0
   17.5058   -0.7585   -6.0668 C   0  0  0  0  0  0  0  0  0  0  0  0
   17.3448   -1.0935   -4.5906 C   0  0  0  0  0  0  0  0  0  0  0  0
   16.0891   -1.8654   -4.3328 C   0  0  1  0  0  0  0  0  0  0  0  0
   15.9734   -2.0774   -2.8004 C   0  0  0  0  0  0  0  0  0  0  0  0
   14.8819   -1.0501   -4.7655 C   0  0  0  0  0  3  0  0  0  0  0  0
   13.7680   -1.9432   -5.1480 C   0  0  0  0  0  0  0  0  0  0  0  0
   12.3789   -1.4703   -4.9359 C   0  0  0  0  0  0  0  0  0  0  0  0
   12.2930   -0.1530   -4.2043 C   0  0  2  0  0  0  0  0  0  0  0  0
   12.7409   -0.3873   -2.7578 C   0  0  0  0  0  0  0  0  0  0  0  0
   10.8455    0.3187   -4.0888 C   0  0  0  0  0  0  0  0  0  0  0  0
   10.8665    1.8270   -4.1978 C   0  0  0  0  0  0  0  0  0  0  0  0
    9.5570    2.3940   -4.6462 C   0  0  2  0  0  0  0  0  0  0  0  0
    9.6410    3.8232   -4.8573 N   0  0  0  0  0  0  0  0  0  0  0  0
    8.5027    2.1394   -3.5781 C   0  0  2  0  0  0  0  0  0  0  0  0
    7.3641    1.4644   -4.2911 C   0  0  0  0  0  0  0  0  0  0  0  0
    7.2207    0.0664   -3.8281 C   0  0  0  0  0  0  0  0  0  0  0  0
    7.2102   -0.9391   -4.9345 C   0  0  0  0  0  0  0  0  0  0  0  0
    6.3115   -0.5968   -6.0735 C   0  0  0  0  0  0  0  0  0  0  0  0
    7.0687    0.0365   -7.2344 C   0  0  0  0  0  0  0  0  0  0  0  0
    5.6897   -1.8758   -6.6008 C   0  0  0  0  0  0  0  0  0  0  0  0
    5.2291    0.2982   -5.7201 N   0  0  0  0  0  0  0  0  0  0  0  0
    5.5243    1.6681   -5.9846 C   0  0  0  0  0  0  0  0  0  0  0  0
    6.6802    2.1718   -5.1847 C   0  0  0  0  0  0  0  0  0  0  0  0
    7.0395    3.5735   -5.4577 C   0  0  0  0  0  0  0  0  0  0  0  0
    7.5944    4.3223   -4.2868 C   0  0  0  0  0  3  0  0  0  0  0  0
    7.9363    3.4769   -3.1047 C   0  0  2  0  0  0  0  0  0  0  0  0
    9.1354    4.2815   -2.0947 Cl  0  0  0  0  0  0  0  0  0  0  0  0
    6.6644    3.1826   -2.3326 C   0  0  0  0  0  0  0  0  0  0  0  0
    6.6727    3.9471   -1.0433 C   0  0  0  0  0  0  0  0  0  0  0  0
    7.9513    4.4883   -0.5093 C   0  0  0  0  0  0  0  0  0  0  0  0
    5.5684    4.1351   -0.3968 N   0  0  0  0  0  4  0  0  0  0  0  0
    5.5797    4.8643    0.8310 C   0  0  0  0  0  0  0  0  0  0  0  0
    4.3500    3.6007   -0.9388 C   0  0  0  0  0  0  0  0  0  0  0  0
    3.4630    3.1694    0.1971 C   0  0  0  0  0  0  0  0  0  0  0  0
    2.2815    4.0918    0.3054 C   0  0  0  0  0  0  0  0  0  0  0  0
    2.4395    4.9438    1.5388 C   0  0  0  0  0  0  0  0  0  0  0  0
    2.2960    4.0437    2.7652 C   0  0  0  0  0  0  0  0  0  0  0  0
    3.0305    4.7160    3.8929 C   0  0  0  0  0  0  0  0  0  0  0  0
    4.3167    4.0093    4.2087 C   0  0  0  0  0  0  0  0  0  0  0  0
    4.9570    4.5022    5.4639 C   0  0  0  0  0  0  0  0  0  0  0  0
    5.8594    5.6683    5.2000 C   0  0  0  0  0  3  0  0  0  0  0  0
    7.1799    5.4283    5.9262 C   0  0  2  0  0  0  0  0  0  0  0  0
    8.3375    5.9627    5.1006 C   0  0  0  0  0  0  0  0  0  0  0  0
    7.3818    3.9417    6.1704 C   0  0  0  0  0  0  0  0  0  0  0  0
    7.3043    3.6140    7.6026 C   0  0  0  0  0  0  0  0  0  0  0  0
    7.7842    2.6032    8.1822 N   0  0  0  0  0  4  0  0  0  0  0  0
    7.5693    2.5100    9.6163 C   0  0  0  0  0  0  0  0  0  0  0  0
    8.5078    1.5509    7.5669 C   0  0  0  0  0  0  0  0  0  0  0  0
    7.8075    0.2034    7.6602 C   0  0  2  0  0  0  0  0  0  0  0  0
    7.1187    0.0995    9.0002 C   0  0  0  0  0  3  0  0  0  0  0  0
    5.9524   -0.8597    8.8876 C   0  0  0  0  0  0  0  0  0  0  0  0
    8.9359   -0.8368    7.6392 C   0  0  0  0  0  0  0  0  0  0  0  0
    9.0708   -1.4626    9.0045 C   0  0  0  0  0  0  0  0  0  0  0  0
    9.1289   -2.9634    8.8690 C   0  0  1  0  0  0  0  0  0  0  0  0
    7.7759   -3.4965    8.9755 N   0  0  0  0  0  0  0  0  0  0  0  0
    9.7378   -3.4015    7.5647 C   0  0  0  0  0  0  0  0  0  0  0  0
    9.9862   -3.4754   10.0148 C   0  0  0  0  0  0  0  0  0  0  0  0
    9.7569   -4.8666   10.2589 N   0  0  0  0  0  0  0  0  0  0  0  0
   10.7991   -5.6862    9.8314 C   0  0  0  0  0  0  0  0  0  0  0  0
   11.2139   -6.8008   10.6296 C   0  0  0  0  0  0  0  0  0  0  0  0
   11.2235   -8.1932   10.1140 C   0  0  1  0  0  0  0  0  0  0  0  0
   12.6927   -8.6828   10.1085 C   0  0  0  0  0  0  0  0  0  0  0  0
   13.1282   -9.0526    8.7192 C   0  0  0  0  0  3  0  0  0  0  0  0
   11.9169   -9.1673    7.8199 C   0  0  0  0  0  0  0  0  0  0  0  0
   10.4981   -9.0814   11.1504 C   0  0  0  0  0  0  0  0  0  0  0  0
    9.3011  -10.2309   10.3066 Si  0  0  0  0  0  3  0  0  0  0  0  0
    8.0109  -11.0955   11.7041 Cl  0  0  0  0  0  0  0  0  0  0  0  0
    8.3408   -9.3230    9.0166 C   0  0  0  0  0  3  0  0  0  0  0  0
    6.9084   -9.0946    9.4186 C   0  0  0  0  0  3  0  0  0  0  0  0
    5.9681   -9.1052    8.2369 C   0  0  0  0  0  0  0  0  0  0  0  0
  1  2  1  0
  2  3  1  0
  2  4  1  0
  4  5  1  0
  5  6  1  0
  6  7  1  0
  7  8  1  1
  7  9  1  0
  9 10  1  0
 10 11  1  0
 11 12  1  0
 12 13  1  1
 12 14  1  0
 14 15  1  0
 15 16  1  0
 16 17  1  1
 16 18  1  0
 18 19  1  6
 19 20  1  0
 20 21  1  0
 21 22  1  0
 22 23  1  0
 22 24  1  0
 22 25  1  0
 25 26  1  0
 26 27  1  0
 27 28  1  0
 28 29  1  0
 29 30  1  0
 30 31  1  1
 30 32  1  0
 32 33  1  0
 33 34  1  0
 33 35  2  3
 35 36  1  0
 35 37  1  0
 37 38  1  0
 38 39  1  0
 39 40  1  0
 40 41  1  0
 41 42  1  0
 42 43  1  0
 43 44  1  0
 44 45  1  0
 45 46  1  0
 46 47  1  6
 46 48  1  0
 48 49  1  0
 49 50  2  3
 50 51  1  0
 50 52  1  0
 53 52  1  1
 53 54  1  0
 54 55  1  0
 53 56  1  0
 56 57  1  0
 57 58  1  0
 58 59  1  0
 58 60  1  6
 58 61  1  0
 61 62  1  0
 62 63  1  0
 63 64  1  0
 65 64  1  1
 65 66  1  0
 66 67  1  0
 67 68  1  0
 65 69  1  0
 69 70  1  0
 70 71  1  0
 70 72  1  0
 72 73  1  0
 73 74  1  0
 30 18  1  0
 19 27  2  0
M  RAD  8   9   2  29   2  45   2  54   2  67   2  70   2  72   2  73   2
M  CHG  2  35   1  50   1
M  END
>  <docking_score>  (1) 
77.290000000000006

$$$$
