
     RDKit          3D

 27 28  0  0  0  0  0  0  0  0999 V2000
    2.9513   12.7935    3.6534 C   0  0  0  0  0  0  0  0  0  0  0  0
    3.2242   13.3538    5.0100 C   0  0  0  0  0  0  0  0  0  0  0  0
    2.9272   14.6773    5.2826 C   0  0  0  0  0  0  0  0  0  0  0  0
    3.2886   14.8663    6.6165 C   0  0  0  0  0  0  0  0  0  0  0  0
    3.7849   13.7095    7.1324 C   0  0  0  0  0  0  0  0  0  0  0  0
    4.2124   13.4245    8.5194 C   0  0  0  0  0  0  0  0  0  0  0  0
    3.3380   12.8784    9.4244 C   0  0  0  0  0  0  0  0  0  0  0  0
    3.7436   12.5199   10.7157 C   0  0  0  0  0  0  0  0  0  0  0  0
    5.0583   12.7172   11.1117 C   0  0  0  0  0  0  0  0  0  0  0  0
    5.4870   12.2557   12.4815 C   0  0  0  0  0  0  0  0  0  0  0  0
    5.0768   13.1689   13.5767 C   0  0  0  0  0  0  0  0  0  0  0  0
    4.9212   10.9659   12.6818 O   0  0  0  0  0  0  0  0  0  0  0  0
    6.8664   12.0427   12.4003 O   0  0  0  0  0  0  0  0  0  0  0  0
    5.9192   13.2648   10.2016 C   0  0  0  0  0  0  0  0  0  0  0  0
    5.5092   13.6210    8.9130 C   0  0  0  0  0  0  0  0  0  0  0  0
    3.7347   12.7806    6.1115 N   0  0  0  0  0  0  0  0  0  0  0  0
    4.1125   11.4712    6.3099 C   0  0  0  0  0  0  0  0  0  0  0  0
    5.1106   10.7990    5.9158 C   0  0  0  0  0  0  0  0  0  0  0  0
    6.1794   11.1852    5.1169 C   0  0  0  0  0  0  0  0  0  0  0  0
    7.2104   10.6915    4.5584 C   0  0  0  0  0  0  0  0  0  0  0  0
    8.1244   11.5892    3.7295 C   0  0  0  0  0  0  0  0  0  0  0  0
    7.1868   12.4118    2.8607 C   0  0  0  0  0  0  0  0  0  0  0  0
    7.5641   13.5940    2.4283 C   0  0  0  0  0  0  0  0  0  0  0  0
    8.8479   14.1792    2.7402 C   0  0  0  0  0  0  0  0  0  0  0  0
    8.9755   15.2813    3.4179 C   0  0  0  0  0  0  0  0  0  0  0  0
    7.9430   16.0707    3.9553 N   0  0  0  0  0  0  0  0  0  0  0  0
    7.0516   15.4869    4.9869 C   0  0  0  0  0  0  0  0  0  0  0  0
  1  2  1  0
  2  3  2  0
  3  4  1  0
  4  5  2  0
  5  6  1  0
  6  7  2  0
  7  8  1  0
  8  9  2  0
  9 10  1  0
 10 11  1  0
 10 12  1  0
 10 13  1  0
  9 14  1  0
 14 15  2  0
  5 16  1  0
 16 17  1  0
 17 18  2  3
 18 19  1  0
 19 20  2  3
 20 21  1  0
 21 22  1  0
 22 23  2  3
 23 24  1  0
 24 25  2  3
 25 26  1  0
 26 27  1  0
 16  2  1  0
 15  6  1  0
M  END
>  <docking_score>  (1) 
-3.274

$$$$

     RDKit          3D

 27 28  0  0  0  0  0  0  0  0999 V2000
    4.6530   13.7306   10.6012 C   0  0  0  0  0  0  0  0  0  0  0  0
    6.0947   14.0987   10.7209 C   0  0  0  0  0  0  0  0  0  0  0  0
    6.7659   14.6232    9.6307 C   0  0  0  0  0  0  0  0  0  0  0  0
    8.0647   14.8615   10.0803 C   0  0  0  0  0  0  0  0  0  0  0  0
    8.1792   14.4968   11.3859 C   0  0  0  0  0  0  0  0  0  0  0  0
    9.3415   14.6453   12.2885 C   0  0  0  0  0  0  0  0  0  0  0  0
    9.1853   14.5779   13.6497 C   0  0  0  0  0  0  0  0  0  0  0  0
   10.2812   14.6286   14.5198 C   0  0  0  0  0  0  0  0  0  0  0  0
   11.5663   14.7539   14.0131 C   0  0  0  0  0  0  0  0  0  0  0  0
   12.7341   14.7326   14.9665 C   0  0  0  0  0  0  0  0  0  0  0  0
   12.6398   15.7403   16.0516 C   0  0  0  0  0  0  0  0  0  0  0  0
   12.7963   13.4230   15.5188 O   0  0  0  0  0  0  0  0  0  0  0  0
   13.8792   14.8511   14.1733 O   0  0  0  0  0  0  0  0  0  0  0  0
   11.7085   14.8230   12.6550 C   0  0  0  0  0  0  0  0  0  0  0  0
   10.6107   14.7717   11.7903 C   0  0  0  0  0  0  0  0  0  0  0  0
    6.9376   14.0240   11.7633 N   0  0  0  0  0  0  0  0  0  0  0  0
    6.6828   13.6202   13.0550 C   0  0  0  0  0  0  0  0  0  0  0  0
    6.3850   12.4969   13.5580 C   0  0  0  0  0  0  0  0  0  0  0  0
    6.2046   11.2677   12.9366 C   0  0  0  0  0  0  0  0  0  0  0  0
    5.9131   10.7821   11.7973 C   0  0  0  0  0  0  0  0  0  0  0  0
    5.8405    9.2688   11.6165 C   0  0  0  0  0  0  0  0  0  0  0  0
    4.3558    8.9429   11.6123 C   0  0  0  0  0  0  0  0  0  0  0  0
    3.7268    8.7716   10.4713 C   0  0  0  0  0  0  0  0  0  0  0  0
    4.3751    8.8820    9.1848 C   0  0  0  0  0  0  0  0  0  0  0  0
    4.1316    8.0696    8.1994 C   0  0  0  0  0  0  0  0  0  0  0  0
    3.2325    6.9881    8.1945 N   0  0  0  0  0  0  0  0  0  0  0  0
    2.2621    6.8624    7.0799 C   0  0  0  0  0  0  0  0  0  0  0  0
  1  2  1  0
  2  3  2  0
  3  4  1  0
  4  5  2  0
  5  6  1  0
  6  7  2  0
  7  8  1  0
  8  9  2  0
  9 10  1  0
 10 11  1  0
 10 12  1  0
 10 13  1  0
  9 14  1  0
 14 15  2  0
  5 16  1  0
 16 17  1  0
 17 18  2  3
 18 19  1  0
 19 20  2  3
 20 21  1  0
 21 22  1  0
 22 23  2  3
 23 24  1  0
 24 25  2  3
 25 26  1  0
 26 27  1  0
 16  2  1  0
 15  6  1  0
M  END
>  <docking_score>  (2) 
-3.0209999999999999

$$$$

     RDKit          3D

 27 28  0  0  0  0  0  0  0  0999 V2000
   13.3694   -1.2078   -4.8816 C   0  0  0  0  0  0  0  0  0  0  0  0
   14.1583   -2.4491   -5.1377 C   0  0  0  0  0  0  0  0  0  0  0  0
   13.8672   -3.2374   -6.2368 C   0  0  0  0  0  0  0  0  0  0  0  0
   14.7810   -4.2900   -6.1847 C   0  0  0  0  0  0  0  0  0  0  0  0
   15.5913   -4.1493   -5.1011 C   0  0  0  0  0  0  0  0  0  0  0  0
   16.7472   -4.9791   -4.6974 C   0  0  0  0  0  0  0  0  0  0  0  0
   16.6655   -6.3484   -4.7092 C   0  0  0  0  0  0  0  0  0  0  0  0
   17.7721   -7.1543   -4.4151 C   0  0  0  0  0  0  0  0  0  0  0  0
   18.9909   -6.5734   -4.0975 C   0  0  0  0  0  0  0  0  0  0  0  0
   20.1847   -7.4623   -3.8567 C   0  0  0  0  0  0  0  0  0  0  0  0
   21.3238   -6.7712   -3.2035 C   0  0  0  0  0  0  0  0  0  0  0  0
   19.7405   -8.5453   -3.0482 O   0  0  0  0  0  0  0  0  0  0  0  0
   20.4949   -8.0320   -5.0951 O   0  0  0  0  0  0  0  0  0  0  0  0
   19.0587   -5.2078   -4.0863 C   0  0  0  0  0  0  0  0  0  0  0  0
   17.9506   -4.4074   -4.3808 C   0  0  0  0  0  0  0  0  0  0  0  0
   15.1836   -2.9939   -4.4635 N   0  0  0  0  0  0  0  0  0  0  0  0
   15.8359   -2.5184   -3.3478 C   0  0  0  0  0  0  0  0  0  0  0  0
   16.8427   -1.7647   -3.2009 C   0  0  0  0  0  0  0  0  0  0  0  0
   17.6462   -1.1624   -4.1607 C   0  0  0  0  0  0  0  0  0  0  0  0
   18.5356   -1.4634   -5.0193 C   0  0  0  0  0  0  0  0  0  0  0  0
   19.1462   -0.3697   -5.8907 C   0  0  0  0  0  0  0  0  0  0  0  0
   20.0690   -1.1008   -6.8523 C   0  0  0  0  0  0  0  0  0  0  0  0
   19.5625   -1.8939   -7.7695 C   0  0  0  0  0  0  0  0  0  0  0  0
   18.1444   -2.1249   -7.9219 C   0  0  0  0  0  0  0  0  0  0  0  0
   17.6545   -3.2488   -8.3546 C   0  0  0  0  0  0  0  0  0  0  0  0
   18.3730   -4.3978   -8.7312 N   0  0  0  0  0  0  0  0  0  0  0  0
   18.9500   -5.2654   -7.6758 C   0  0  0  0  0  0  0  0  0  0  0  0
  1  2  1  0
  2  3  2  0
  3  4  1  0
  4  5  2  0
  5  6  1  0
  6  7  2  0
  7  8  1  0
  8  9  2  0
  9 10  1  0
 10 11  1  0
 10 12  1  0
 10 13  1  0
  9 14  1  0
 14 15  2  0
  5 16  1  0
 16 17  1  0
 17 18  2  3
 18 19  1  0
 19 20  2  3
 20 21  1  0
 21 22  1  0
 22 23  2  3
 23 24  1  0
 24 25  2  3
 25 26  1  0
 26 27  1  0
 16  2  1  0
 15  6  1  0
M  END
>  <docking_score>  (3) 
-2.3479999999999999

$$$$
