
     RDKit          3D

 25 25  0  0  0  0  0  0  0  0999 V2000
   20.4482   -8.6779   -4.8244 C   0  0  0  0  0  0  0  0  0  0  0  0
   19.3732   -8.0357   -5.6805 C   0  0  0  0  0  0  0  0  0  0  0  0
   19.7333   -8.3025   -7.1189 C   0  0  0  0  0  0  0  0  0  0  0  0
   18.0558   -8.6434   -5.3182 C   0  0  0  0  0  0  0  0  0  0  0  0
   19.4006   -6.5492   -5.3908 C   0  0  1  0  0  0  0  0  0  0  0  0
   18.4981   -5.7718   -6.2874 C   0  0  0  0  0  0  0  0  0  0  0  0
   17.2123   -6.4972   -6.6250 C   0  0  2  0  0  0  0  0  0  0  0  0
   17.4075   -7.1239   -7.8728 O   0  0  0  0  0  0  0  0  0  0  0  0
   16.1092   -5.4656   -6.7299 C   0  0  0  0  0  3  0  0  0  0  0  0
   14.7456   -6.0773   -6.5367 C   0  0  0  0  0  0  0  0  0  0  0  0
   13.7302   -5.0088   -6.2045 C   0  0  0  0  0  0  0  0  0  0  0  0
   14.3795   -3.6536   -6.0352 C   0  0  0  0  0  0  0  0  0  0  0  0
   14.6265   -3.4068   -4.6281 N   0  0  0  0  0  0  0  0  0  0  0  0
   15.1095   -2.0431   -4.4556 C   0  0  2  0  0  0  0  0  0  0  0  0
   15.5561   -1.4959   -5.8150 C   0  0  0  0  0  0  0  0  0  0  0  0
   16.2785   -2.0005   -3.4801 C   0  0  0  0  0  0  0  0  0  0  0  0
   15.8220   -1.3394   -2.2155 C   0  0  0  0  0  0  0  0  0  0  0  0
   17.4035   -1.2074   -4.1115 C   0  0  0  0  0  0  0  0  0  0  0  0
   16.7558   -3.4044   -3.2912 C   0  0  0  0  0  0  0  0  0  0  0  0
   17.6331   -3.5828   -2.0810 C   0  0  1  0  0  0  0  0  0  0  0  0
   18.1509   -5.0077   -2.1268 C   0  0  0  0  0  0  0  0  0  0  0  0
   18.3752   -5.3465   -3.5532 C   0  0  0  0  0  0  0  0  0  0  0  0
   19.2337   -6.2697   -3.9594 C   0  0  0  0  0  0  0  0  0  0  0  0
   18.8201   -2.6691   -2.0649 C   0  0  0  0  0  3  0  0  0  0  0  0
   19.7913   -3.0646   -0.9906 C   0  0  0  0  0  0  0  0  0  0  0  0
  1  2  1  0
  2  3  1  0
  2  4  1  0
  5  2  1  1
  5  6  1  0
  6  7  1  0
  7  8  1  6
  7  9  1  0
  9 10  1  0
 10 11  1  0
 11 12  1  0
 12 13  1  0
 13 14  1  0
 14 15  1  6
 14 16  1  0
 16 17  1  0
 16 18  1  0
 16 19  1  0
 19 20  1  0
 20 21  1  0
 21 22  1  0
 22 23  2  3
 20 24  1  6
 24 25  1  0
 23  5  1  0
M  RAD  2   9   2  24   2
M  END
>  <docking_score>  (1) 
-5.4790000000000001

$$$$

     RDKit          3D

 25 25  0  0  0  0  0  0  0  0999 V2000
   21.0384   -2.4392   -2.9481 C   0  0  0  0  0  0  0  0  0  0  0  0
   19.9918   -2.1217   -1.8969 C   0  0  0  0  0  0  0  0  0  0  0  0
   20.2669   -3.0128   -0.7136 C   0  0  0  0  0  0  0  0  0  0  0  0
   20.1072   -0.6746   -1.5382 C   0  0  0  0  0  0  0  0  0  0  0  0
   18.6404   -2.4408   -2.5020 C   0  0  1  0  0  0  0  0  0  0  0  0
   18.3371   -1.6099   -3.7022 C   0  0  0  0  0  0  0  0  0  0  0  0
   19.5512   -1.3258   -4.5616 C   0  0  2  0  0  0  0  0  0  0  0  0
   20.0356   -0.0565   -4.1847 O   0  0  0  0  0  0  0  0  0  0  0  0
   19.1030   -1.3014   -6.0075 C   0  0  0  0  0  3  0  0  0  0  0  0
   20.2464   -1.5537   -6.9560 C   0  0  0  0  0  0  0  0  0  0  0  0
   19.7250   -1.9617   -8.3143 C   0  0  0  0  0  0  0  0  0  0  0  0
   18.2216   -2.1248   -8.3103 C   0  0  0  0  0  0  0  0  0  0  0  0
   17.8861   -3.5217   -8.1155 N   0  0  0  0  0  0  0  0  0  0  0  0
   16.4474   -3.6970   -8.2645 C   0  0  2  0  0  0  0  0  0  0  0  0
   15.7660   -2.3277   -8.1784 C   0  0  0  0  0  0  0  0  0  0  0  0
   15.8962   -4.6097   -7.1768 C   0  0  0  0  0  0  0  0  0  0  0  0
   15.4944   -5.9104   -7.8025 C   0  0  0  0  0  0  0  0  0  0  0  0
   14.6951   -3.9364   -6.5464 C   0  0  0  0  0  0  0  0  0  0  0  0
   16.9516   -4.7435   -6.1268 C   0  0  0  0  0  0  0  0  0  0  0  0
   16.7253   -5.9014   -5.1917 C   0  0  1  0  0  0  0  0  0  0  0  0
   17.7830   -5.7983   -4.1095 C   0  0  0  0  0  0  0  0  0  0  0  0
   17.9963   -4.3551   -3.8419 C   0  0  0  0  0  0  0  0  0  0  0  0
   18.4554   -3.8846   -2.6920 C   0  0  0  0  0  0  0  0  0  0  0  0
   15.3860   -5.8737   -4.5213 C   0  0  0  0  0  3  0  0  0  0  0  0
   14.7332   -7.2250   -4.5633 C   0  0  0  0  0  0  0  0  0  0  0  0
  1  2  1  0
  2  3  1  0
  2  4  1  0
  5  2  1  6
  5  6  1  0
  6  7  1  0
  7  8  1  1
  7  9  1  0
  9 10  1  0
 10 11  1  0
 11 12  1  0
 12 13  1  0
 13 14  1  0
 14 15  1  1
 14 16  1  0
 16 17  1  0
 16 18  1  0
 16 19  1  0
 19 20  1  0
 20 21  1  0
 21 22  1  0
 22 23  2  3
 20 24  1  1
 24 25  1  0
 23  5  1  0
M  RAD  2   9   2  24   2
M  END
>  <docking_score>  (2) 
-5.4290000000000003

$$$$

     RDKit          3D

 25 25  0  0  0  0  0  0  0  0999 V2000
   20.1280   -8.2343   -6.2163 C   0  0  0  0  0  0  0  0  0  0  0  0
   19.5792   -7.8097   -4.8674 C   0  0  0  0  0  0  0  0  0  0  0  0
   18.2284   -8.4590   -4.7136 C   0  0  0  0  0  0  0  0  0  0  0  0
   20.5330   -8.2593   -3.8073 C   0  0  0  0  0  0  0  0  0  0  0  0
   19.4457   -6.3011   -4.8947 C   0  0  1  0  0  0  0  0  0  0  0  0
   18.5581   -5.8221   -5.9926 C   0  0  0  0  0  0  0  0  0  0  0  0
   17.3782   -6.7342   -6.2558 C   0  0  2  0  0  0  0  0  0  0  0  0
   17.7382   -7.5754   -7.3285 O   0  0  0  0  0  0  0  0  0  0  0  0
   16.1992   -5.8693   -6.6481 C   0  0  0  0  0  3  0  0  0  0  0  0
   14.8854   -6.5720   -6.4225 C   0  0  0  0  0  0  0  0  0  0  0  0
   13.7516   -5.5736   -6.3905 C   0  0  0  0  0  0  0  0  0  0  0  0
   14.2575   -4.1505   -6.4661 C   0  0  0  0  0  0  0  0  0  0  0  0
   14.3569   -3.5996   -5.1287 N   0  0  0  0  0  0  0  0  0  0  0  0
   14.6968   -2.1854   -5.2141 C   0  0  2  0  0  0  0  0  0  0  0  0
   15.2089   -1.8793   -6.6250 C   0  0  0  0  0  0  0  0  0  0  0  0
   15.7671   -1.8217   -4.1934 C   0  0  0  0  0  0  0  0  0  0  0  0
   15.1433   -0.9717   -3.1289 C   0  0  0  0  0  0  0  0  0  0  0  0
   16.8662   -1.0565   -4.9003 C   0  0  0  0  0  0  0  0  0  0  0  0
   16.3518   -3.0991   -3.6827 C   0  0  0  0  0  0  0  0  0  0  0  0
   17.1325   -2.9344   -2.4062 C   0  0  1  0  0  0  0  0  0  0  0  0
   17.7799   -4.2753   -2.1174 C   0  0  0  0  0  0  0  0  0  0  0  0
   18.1581   -4.8691   -3.4228 C   0  0  0  0  0  0  0  0  0  0  0  0
   19.1294   -5.7579   -3.5681 C   0  0  0  0  0  0  0  0  0  0  0  0
   18.2253   -1.9144   -2.5027 C   0  0  0  0  0  3  0  0  0  0  0  0
   19.3448   -2.2312   -1.5540 C   0  0  0  0  0  0  0  0  0  0  0  0
  1  2  1  0
  2  3  1  0
  2  4  1  0
  5  2  1  1
  5  6  1  0
  6  7  1  0
  7  8  1  6
  7  9  1  0
  9 10  1  0
 10 11  1  0
 11 12  1  0
 12 13  1  0
 13 14  1  0
 14 15  1  6
 14 16  1  0
 16 17  1  0
 16 18  1  0
 16 19  1  0
 19 20  1  0
 20 21  1  0
 21 22  1  0
 22 23  2  3
 20 24  1  6
 24 25  1  0
 23  5  1  0
M  RAD  2   9   2  24   2
M  END
>  <docking_score>  (3) 
-5.0049999999999999

$$$$
