
     RDKit          3D

 47 47  0  0  0  0  0  0  0  0999 V2000
   15.2715   -5.5475   -8.5372 C   0  0  0  0  0  0  0  0  0  0  0  0
   16.4793   -5.6895   -8.0280 C   0  0  0  0  0  0  0  0  0  0  0  0
   17.4211   -6.6335   -8.6659 C   0  0  0  0  0  0  0  0  0  0  0  0
   16.8794   -4.9241   -6.8486 C   0  0  2  0  0  0  0  0  0  0  0  0
   17.9885   -3.9363   -7.1241 C   0  0  0  0  0  0  0  0  0  0  0  0
   19.0795   -4.1712   -6.1023 C   0  0  0  0  0  0  0  0  0  0  0  0
   20.3693   -4.6143   -6.7752 C   0  0  0  0  0  3  0  0  0  0  0  0
   20.9694   -3.3755   -7.4320 C   0  0  0  0  0  0  0  0  0  0  0  0
   21.3781   -5.0969   -5.7613 C   0  0  0  0  0  0  0  0  0  0  0  0
   21.1873   -6.5389   -5.4107 C   0  0  0  0  0  0  0  0  0  0  0  0
   20.5249   -7.2675   -6.5601 C   0  0  0  0  0  0  0  0  0  0  0  0
   20.2216   -8.7052   -6.1961 C   0  0  0  0  0  3  0  0  0  0  0  0
   18.7835   -8.9777   -6.5805 C   0  0  0  0  0  0  0  0  0  0  0  0
   17.9042   -8.0585   -5.7613 C   0  0  0  0  0  0  0  0  0  0  0  0
   18.3384   -6.6135   -5.8869 C   0  0  0  0  0  0  0  0  0  0  0  0
   17.1263   -5.7525   -5.6322 C   0  0  1  0  0  0  0  0  0  0  0  0
   17.2878   -4.8547   -4.4461 C   0  0  0  0  0  0  0  0  0  0  0  0
   16.7769   -3.4814   -4.8086 C   0  0  0  0  0  0  0  0  0  0  0  0
   15.5376   -3.1164   -4.0197 C   0  0  0  0  0  3  0  0  0  0  0  0
   14.6583   -2.1558   -4.8629 C   0  0  1  0  0  0  0  0  0  0  0  0
   13.4157   -3.1048   -5.1218 C   0  0  0  0  0  0  0  0  0  0  0  0
   13.9968   -4.4026   -5.6962 C   0  0  0  0  0  0  0  0  0  0  0  0
   13.0942   -5.5443   -5.3595 C   0  0  0  0  0  0  0  0  0  0  0  0
   13.8470   -6.8270   -5.1621 C   0  0  0  0  0  0  0  0  0  0  0  0
   14.4697   -6.8200   -3.7619 C   0  0  0  0  0  0  0  0  0  0  0  0
   14.2388   -1.1028   -4.1031 O   0  0  0  0  0  0  0  0  0  0  0  0
   13.0106   -0.9689   -3.6766 C   0  0  0  0  0  0  0  0  0  0  0  0
   11.9728   -0.3823   -4.5182 C   0  0  0  0  0  0  0  0  0  0  0  0
   12.5381    0.3160   -5.7245 C   0  0  0  0  0  0  0  0  0  0  0  0
   13.7728    1.0987   -5.4531 C   0  0  0  0  0  0  0  0  0  0  0  0
   14.9841    0.3746   -5.9563 C   0  0  0  0  0  0  0  0  0  0  0  0
   16.2355    1.0943   -5.5278 C   0  0  0  0  0  0  0  0  0  0  0  0
   17.4632    0.2541   -5.8084 C   0  0  0  0  0  0  0  0  0  0  0  0
   18.4285    0.5147   -4.6479 C   0  0  0  0  0  0  0  0  0  0  0  0
   19.7041   -0.2461   -4.9022 C   0  0  1  0  0  0  0  0  0  0  0  0
   19.6150   -1.6372   -4.3575 C   0  0  0  0  0  0  0  0  0  0  0  0
   19.9647   -0.3007   -6.3101 N   0  0  0  0  0  2  0  0  0  0  0  0
   21.0230    0.6021   -6.6954 C   0  0  0  0  0  0  0  0  0  0  0  0
   20.4505    1.9267   -7.1617 C   0  0  0  0  0  0  0  0  0  0  0  0
   21.1538    3.0764   -6.4838 C   0  0  0  0  0  2  0  0  0  0  0  0
   20.2282    3.8533   -5.5732 C   0  0  0  0  0  0  0  0  0  0  0  0
   18.9069    4.1234   -6.2707 C   0  0  0  0  0  0  0  0  0  0  0  0
   19.0173    5.3073   -7.2001 C   0  0  0  0  0  0  0  0  0  0  0  0
   18.2851    6.4911   -6.6575 C   0  0  0  0  0  3  0  0  0  0  0  0
   16.9528    6.0940   -6.1287 C   0  0  0  0  0  0  0  0  0  0  0  0
   16.8103    5.9288   -4.8960 N   0  0  0  0  0  4  0  0  0  0  0  0
   16.6650    5.4697   -3.7549 N   0  0  0  0  0  2  0  0  0  0  0  0
  1  2  2  0
  2  3  1  0
  4  2  1  6
  4  5  1  0
  5  6  1  0
  6  7  1  0
  7  8  1  0
  7  9  1  0
  9 10  1  0
 10 11  1  0
 11 12  1  0
 12 13  1  0
 13 14  1  0
 14 15  1  0
 15 16  1  0
 16 17  1  1
 17 18  1  0
 18 19  1  0
 20 19  1  1
 20 21  1  0
 21 22  1  0
 22 23  1  0
 23 24  1  0
 24 25  1  0
 20 26  1  0
 26 27  1  0
 27 28  1  0
 28 29  1  0
 29 30  1  0
 30 31  1  0
 31 32  1  0
 32 33  1  0
 33 34  1  0
 34 35  1  0
 35 36  1  6
 35 37  1  0
 37 38  1  0
 38 39  1  0
 39 40  1  0
 40 41  1  0
 41 42  1  0
 42 43  1  0
 43 44  1  0
 44 45  1  0
 45 46  2  0
 46 47  2  0
 16  4  1  0
M  CHG  3  37   1  46   1  47  -1
M  RAD  6   7   2  12   2  19   2  37   3  40   3  44   2
M  END
>  <docking_score>  (1) 
3.2120000000000002

$$$$

     RDKit          3D

 47 47  0  0  0  0  0  0  0  0999 V2000
    9.6983   13.3764    4.5004 C   0  0  0  0  0  0  0  0  0  0  0  0
    9.1104   13.5403    3.3317 C   0  0  0  0  0  0  0  0  0  0  0  0
    9.5052   14.6848    2.4837 C   0  0  0  0  0  0  0  0  0  0  0  0
    8.0823   12.6031    2.8829 C   0  0  2  0  0  0  0  0  0  0  0  0
    7.1943   13.1636    1.7971 C   0  0  0  0  0  0  0  0  0  0  0  0
    5.7576   12.9718    2.2315 C   0  0  0  0  0  0  0  0  0  0  0  0
    5.0592   14.3110    2.4090 C   0  0  0  0  0  3  0  0  0  0  0  0
    4.7782   14.8480    1.0095 C   0  0  0  0  0  0  0  0  0  0  0  0
    3.7196   14.1446    3.0845 C   0  0  0  0  0  0  0  0  0  0  0  0
    3.8333   14.1234    4.5763 C   0  0  0  0  0  0  0  0  0  0  0  0
    5.0644   14.8885    5.0121 C   0  0  0  0  0  0  0  0  0  0  0  0
    5.2660   14.7958    6.5096 C   0  0  0  0  0  3  0  0  0  0  0  0
    6.7107   14.4156    6.7510 C   0  0  0  0  0  0  0  0  0  0  0  0
    6.9402   13.0548    6.1307 C   0  0  0  0  0  0  0  0  0  0  0  0
    6.5023   13.0216    4.6818 C   0  0  0  0  0  0  0  0  0  0  0  0
    7.3145   11.9569    3.9874 C   0  0  1  0  0  0  0  0  0  0  0  0
    6.4725   10.8547    3.4262 C   0  0  0  0  0  0  0  0  0  0  0  0
    6.3547    9.7634    4.4623 C   0  0  0  0  0  0  0  0  0  0  0  0
    4.9098    9.4496    4.7865 C   0  0  0  0  0  3  0  0  0  0  0  0
    4.4905    8.1497    4.0508 C   0  0  1  0  0  0  0  0  0  0  0  0
    5.1158    7.0810    5.0399 C   0  0  0  0  0  0  0  0  0  0  0  0
    4.5344    5.7282    4.6112 C   0  0  0  0  0  0  0  0  0  0  0  0
    5.4343    4.6298    5.0753 C   0  0  0  0  0  0  0  0  0  0  0  0
    6.8611    4.8510    4.6669 C   0  0  0  0  0  0  0  0  0  0  0  0
    7.5911    5.5720    5.8051 C   0  0  0  0  0  0  0  0  0  0  0  0
    3.1336    8.0065    4.0716 O   0  0  0  0  0  0  0  0  0  0  0  0
    2.3336    8.8321    4.6933 C   0  0  0  0  0  0  0  0  0  0  0  0
    2.3290    8.9360    6.1489 C   0  0  0  0  0  0  0  0  0  0  0  0
    3.0829   10.1409    6.6410 C   0  0  0  0  0  0  0  0  0  0  0  0
    4.2475    9.8196    7.5076 C   0  0  0  0  0  0  0  0  0  0  0  0
    5.0931   11.0352    7.7361 C   0  0  0  0  0  0  0  0  0  0  0  0
    4.2311   12.1970    8.1544 C   0  0  0  0  0  0  0  0  0  0  0  0
    4.8492   12.9329    9.3241 C   0  0  0  0  0  0  0  0  0  0  0  0
    3.6793   13.4035   10.1937 C   0  0  0  0  0  0  0  0  0  0  0  0
    4.0525   14.7154   10.8342 C   0  0  1  0  0  0  0  0  0  0  0  0
    3.5076   15.8679   10.0501 C   0  0  0  0  0  0  0  0  0  0  0  0
    3.5425   14.7651   12.1724 N   0  0  0  0  0  2  0  0  0  0  0  0
    4.0633   15.8955   12.9036 C   0  0  0  0  0  0  0  0  0  0  0  0
    3.8813   15.6949   14.3957 C   0  0  0  0  0  0  0  0  0  0  0  0
    5.0839   15.0031   14.9884 C   0  0  0  0  0  2  0  0  0  0  0  0
    6.2204   14.8866   13.9963 C   0  0  0  0  0  0  0  0  0  0  0  0
    7.2952   13.9578   14.5325 C   0  0  0  0  0  0  0  0  0  0  0  0
    8.6615   14.3710   14.0428 C   0  0  0  0  0  0  0  0  0  0  0  0
    8.9174   13.8635   12.6612 C   0  0  0  0  0  3  0  0  0  0  0  0
    8.3272   12.5109   12.4753 C   0  0  0  0  0  0  0  0  0  0  0  0
    7.5633   12.0524   13.3547 N   0  0  0  0  0  4  0  0  0  0  0  0
    7.0499   11.4238   14.2902 N   0  0  0  0  0  2  0  0  0  0  0  0
  1  2  2  0
  2  3  1  0
  4  2  1  1
  4  5  1  0
  5  6  1  0
  6  7  1  0
  7  8  1  0
  7  9  1  0
  9 10  1  0
 10 11  1  0
 11 12  1  0
 12 13  1  0
 13 14  1  0
 14 15  1  0
 15 16  1  0
 16 17  1  6
 17 18  1  0
 18 19  1  0
 20 19  1  1
 20 21  1  0
 21 22  1  0
 22 23  1  0
 23 24  1  0
 24 25  1  0
 20 26  1  0
 26 27  1  0
 27 28  1  0
 28 29  1  0
 29 30  1  0
 30 31  1  0
 31 32  1  0
 32 33  1  0
 33 34  1  0
 34 35  1  0
 35 36  1  6
 35 37  1  0
 37 38  1  0
 38 39  1  0
 39 40  1  0
 40 41  1  0
 41 42  1  0
 42 43  1  0
 43 44  1  0
 44 45  1  0
 45 46  2  0
 46 47  2  0
 16  4  1  0
M  CHG  3  37   1  46   1  47  -1
M  RAD  6   7   2  12   2  19   2  37   3  40   3  44   2
M  END
>  <docking_score>  (2) 
5.5199999999999996

$$$$
