
     RDKit          3D

 35 40  0  0  0  0  0  0  0  0999 V2000
   16.1558   -2.2604   -3.3129 C   0  0  0  0  0  0  0  0  0  0  0  0
   17.2421   -1.7503   -2.4423 O   0  0  0  0  0  0  0  0  0  0  0  0
   18.4896   -2.3583   -2.8318 C   0  0  0  0  0  0  0  0  0  0  0  0
   19.4028   -2.8113   -1.9786 C   0  0  0  0  0  0  0  0  0  0  0  0
   20.5566   -3.4769   -2.5112 C   0  0  0  0  0  0  0  0  0  0  0  0
   20.5802   -3.5781   -3.8617 C   0  0  0  0  0  0  0  0  0  0  0  0
   19.6646   -3.1278   -4.8091 C   0  0  0  0  0  0  0  0  0  0  0  0
   18.6185   -2.4849   -4.2076 C   0  0  0  0  0  0  0  0  0  0  0  0
   17.5653   -1.2559   -5.1332 S   0  0  0  0  0  0  0  0  0  0  0  0
   17.4856   -1.9621   -6.7594 C   0  0  2  0  0  0  0  0  0  0  0  0
   16.1019   -2.1217   -7.1182 C   0  0  0  0  0  0  0  0  0  0  0  0
   14.9825   -1.6914   -6.7616 C   0  0  0  0  0  0  0  0  0  0  0  0
   14.3640   -0.8537   -5.8709 C   0  0  0  0  0  0  0  0  0  0  0  0
   14.4920   -0.7180   -4.5255 C   0  0  0  0  0  0  0  0  0  0  0  0
   13.6136    0.3315   -3.9357 C   0  0  0  0  0  0  0  0  0  0  0  0
   15.3943   -1.5100   -3.8655 C   0  0  0  0  0  0  0  0  0  0  0  0
   18.3950   -2.9787   -6.8506 N   0  0  0  0  0  0  0  0  0  0  0  0
   19.4879   -3.3800   -6.1967 C   0  0  0  0  0  0  0  0  0  0  0  0
   20.1168   -4.3673   -7.1640 C   0  0  0  0  0  0  0  0  0  0  0  0
   20.2682   -5.6130   -7.0077 C   0  0  0  0  0  0  0  0  0  0  0  0
   20.8311   -7.2299   -7.6450 S   0  0  2  0  0  0  0  0  0  0  0  0
   19.5554   -7.9376   -8.2091 C   0  0  0  0  0  0  0  0  0  0  0  0
   18.3546   -7.0687   -8.5124 C   0  0  0  0  0  0  0  0  0  0  0  0
   17.0914   -7.2059   -7.2233 S   0  0  0  0  0  0  0  0  0  0  0  0
   16.9051   -5.7656   -6.3018 C   0  0  0  0  0  0  0  0  0  0  0  0
   16.0785   -5.5795   -5.2469 C   0  0  0  0  0  0  0  0  0  0  0  0
   16.1022   -4.3022   -4.6331 C   0  0  0  0  0  0  0  0  0  0  0  0
   16.1170   -3.7688   -3.4418 C   0  0  0  0  0  0  0  0  0  0  0  0
   16.0829   -4.6463   -2.2551 C   0  0  0  0  0  0  0  0  0  0  0  0
   17.2005   -5.6112   -2.1160 C   0  0  0  0  0  0  0  0  0  0  0  0
   18.0633   -5.6500   -3.2586 C   0  0  0  0  0  0  0  0  0  0  0  0
   18.8666   -6.5882   -3.6556 C   0  0  0  0  0  0  0  0  0  0  0  0
   19.6741   -6.5945   -4.7475 C   0  0  0  0  0  0  0  0  0  0  0  0
   20.1472   -6.3308   -5.7824 C   0  0  0  0  0  0  0  0  0  0  0  0
   21.3810   -7.1666   -6.2811 C   0  0  0  0  0  0  0  0  0  0  0  0
  1  2  1  0
  2  3  1  0
  3  4  1  0
  4  5  2  0
  5  6  1  0
  6  7  2  0
  7  8  1  0
  8  9  1  0
  9 10  1  0
 10 11  1  0
 11 12  2  3
 12 13  1  0
 13 14  2  3
 14 15  1  0
 14 16  1  0
 10 17  1  1
 17 18  2  0
 18 19  1  0
 19 20  2  3
 20 21  1  0
 21 22  1  1
 22 23  1  0
 23 24  1  0
 24 25  1  0
 25 26  2  3
 26 27  1  0
 27 28  2  3
 28 29  1  0
 29 30  1  0
 30 31  1  0
 31 32  2  3
 32 33  1  0
 33 34  2  3
 34 35  1  0
  1 16  2  3
 28  1  1  0
  8  3  2  0
 18  7  1  0
 34 20  1  0
 35 21  1  0
M  END
>  <docking_score>  (1) 
-7.54

$$$$

     RDKit          3D

 35 40  0  0  0  0  0  0  0  0999 V2000
   17.9353   -0.9065   -6.1354 C   0  0  0  0  0  0  0  0  0  0  0  0
   16.5577   -0.7204   -5.6198 O   0  0  0  0  0  0  0  0  0  0  0  0
   16.0160   -1.9999   -5.2363 C   0  0  0  0  0  0  0  0  0  0  0  0
   14.7740   -2.3973   -5.4946 C   0  0  0  0  0  0  0  0  0  0  0  0
   14.4017   -3.7348   -5.1335 C   0  0  0  0  0  0  0  0  0  0  0  0
   15.3895   -4.4639   -4.5616 C   0  0  0  0  0  0  0  0  0  0  0  0
   16.7031   -4.1122   -4.2623 C   0  0  0  0  0  0  0  0  0  0  0  0
   16.9523   -2.8154   -4.6169 C   0  0  0  0  0  0  0  0  0  0  0  0
   18.3363   -1.8388   -3.8377 S   0  0  0  0  0  0  0  0  0  0  0  0
   19.6024   -3.0641   -3.6251 C   0  0  2  0  0  0  0  0  0  0  0  0
   20.7966   -2.6020   -4.2804 C   0  0  0  0  0  0  0  0  0  0  0  0
   21.2783   -1.5306   -4.7108 C   0  0  0  0  0  0  0  0  0  0  0  0
   21.0250   -0.1903   -4.8417 C   0  0  0  0  0  0  0  0  0  0  0  0
   19.9391    0.4788   -5.3088 C   0  0  0  0  0  0  0  0  0  0  0  0
   20.0818    1.9619   -5.2792 C   0  0  0  0  0  0  0  0  0  0  0  0
   18.8503   -0.2405   -5.7262 C   0  0  0  0  0  0  0  0  0  0  0  0
   19.0684   -4.3025   -3.8487 N   0  0  0  0  0  0  0  0  0  0  0  0
   17.8537   -4.8561   -3.8844 C   0  0  0  0  0  0  0  0  0  0  0  0
   18.1579   -6.3424   -3.8199 C   0  0  0  0  0  0  0  0  0  0  0  0
   17.9492   -7.2136   -4.7126 C   0  0  0  0  0  0  0  0  0  0  0  0
   18.0571   -8.9434   -5.2899 S   0  0  2  0  0  0  0  0  0  0  0  0
   19.3352   -9.0182   -6.1884 C   0  0  0  0  0  0  0  0  0  0  0  0
   20.3584   -7.9142   -6.0355 C   0  0  0  0  0  0  0  0  0  0  0  0
   20.2479   -6.7130   -7.3850 S   0  0  0  0  0  0  0  0  0  0  0  0
   19.6780   -5.1723   -6.8752 C   0  0  0  0  0  0  0  0  0  0  0  0
   19.4468   -4.0937   -7.6586 C   0  0  0  0  0  0  0  0  0  0  0  0
   18.9661   -2.9263   -7.0144 C   0  0  0  0  0  0  0  0  0  0  0  0
   18.0676   -1.9941   -7.1809 C   0  0  0  0  0  0  0  0  0  0  0  0
   17.2153   -2.0169   -8.3861 C   0  0  0  0  0  0  0  0  0  0  0  0
   16.3704   -3.2212   -8.5736 C   0  0  0  0  0  0  0  0  0  0  0  0
   16.6416   -4.2591   -7.6245 C   0  0  0  0  0  0  0  0  0  0  0  0
   16.4051   -5.5323   -7.7028 C   0  0  0  0  0  0  0  0  0  0  0  0
   16.6754   -6.4935   -6.7823 C   0  0  0  0  0  0  0  0  0  0  0  0
   17.1253   -7.0603   -5.8653 C   0  0  0  0  0  0  0  0  0  0  0  0
   16.6755   -8.5427   -5.6018 C   0  0  0  0  0  0  0  0  0  0  0  0
  1  2  1  0
  2  3  1  0
  3  4  1  0
  4  5  2  0
  5  6  1  0
  6  7  2  0
  7  8  1  0
  8  9  1  0
  9 10  1  0
 10 11  1  0
 11 12  2  3
 12 13  1  0
 13 14  2  3
 14 15  1  0
 14 16  1  0
 10 17  1  6
 17 18  2  0
 18 19  1  0
 19 20  2  3
 20 21  1  0
 21 22  1  6
 22 23  1  0
 23 24  1  0
 24 25  1  0
 25 26  2  3
 26 27  1  0
 27 28  2  3
 28 29  1  0
 29 30  1  0
 30 31  1  0
 31 32  2  3
 32 33  1  0
 33 34  2  3
 34 35  1  0
  1 16  2  3
 28  1  1  0
  8  3  2  0
 18  7  1  0
 34 20  1  0
 35 21  1  0
M  END
>  <docking_score>  (2) 
-6.3700000000000001

$$$$

     RDKit          3D

 35 40  0  0  0  0  0  0  0  0999 V2000
   15.4998   -2.3902   -4.4330 C   0  0  0  0  0  0  0  0  0  0  0  0
   14.1821   -3.0250   -4.6749 O   0  0  0  0  0  0  0  0  0  0  0  0
   14.3758   -4.2774   -5.3617 C   0  0  0  0  0  0  0  0  0  0  0  0
   13.6254   -4.7030   -6.3731 C   0  0  0  0  0  0  0  0  0  0  0  0
   13.9933   -5.9290   -7.0207 C   0  0  0  0  0  0  0  0  0  0  0  0
   15.1005   -6.5259   -6.5184 C   0  0  0  0  0  0  0  0  0  0  0  0
   15.9273   -6.1386   -5.4672 C   0  0  0  0  0  0  0  0  0  0  0  0
   15.4801   -4.9784   -4.8986 C   0  0  0  0  0  0  0  0  0  0  0  0
   15.9367   -4.5070   -3.1534 S   0  0  0  0  0  0  0  0  0  0  0  0
   17.6070   -5.0914   -3.0193 C   0  0  2  0  0  0  0  0  0  0  0  0
   18.4432   -3.9905   -2.6224 C   0  0  0  0  0  0  0  0  0  0  0  0
   18.3231   -2.8564   -2.1078 C   0  0  0  0  0  0  0  0  0  0  0  0
   17.4023   -1.9688   -1.6160 C   0  0  0  0  0  0  0  0  0  0  0  0
   16.2296   -1.5127   -2.1276 C   0  0  0  0  0  0  0  0  0  0  0  0
   15.5255   -0.5342   -1.2513 C   0  0  0  0  0  0  0  0  0  0  0  0
   15.8092   -1.9903   -3.3409 C   0  0  0  0  0  0  0  0  0  0  0  0
   17.8910   -5.8851   -4.0955 N   0  0  0  0  0  0  0  0  0  0  0  0
   17.2096   -6.5616   -5.0235 C   0  0  0  0  0  0  0  0  0  0  0  0
   18.2640   -7.4822   -5.6124 C   0  0  0  0  0  0  0  0  0  0  0  0
   18.7292   -7.4723   -6.7884 C   0  0  0  0  0  0  0  0  0  0  0  0
   19.8696   -8.1513   -8.0436 S   0  0  2  0  0  0  0  0  0  0  0  0
   21.1122   -7.2014   -8.0546 C   0  0  0  0  0  0  0  0  0  0  0  0
   21.3140   -6.3062   -6.8518 C   0  0  0  0  0  0  0  0  0  0  0  0
   20.8001   -4.6049   -7.1948 S   0  0  0  0  0  0  0  0  0  0  0  0
   19.3982   -4.1311   -6.3181 C   0  0  0  0  0  0  0  0  0  0  0  0
   18.7538   -2.9442   -6.3997 C   0  0  0  0  0  0  0  0  0  0  0  0
   17.6064   -2.7817   -5.5837 C   0  0  0  0  0  0  0  0  0  0  0  0
   16.3893   -2.3154   -5.6564 C   0  0  0  0  0  0  0  0  0  0  0  0
   15.9173   -1.7178   -6.9211 C   0  0  0  0  0  0  0  0  0  0  0  0
   15.9224   -2.6028   -8.1110 C   0  0  0  0  0  0  0  0  0  0  0  0
   16.5479   -3.8694   -7.8746 C   0  0  0  0  0  0  0  0  0  0  0  0
   17.0685   -4.7042   -8.7203 C   0  0  0  0  0  0  0  0  0  0  0  0
   17.6562   -5.9013   -8.4633 C   0  0  0  0  0  0  0  0  0  0  0  0
   18.1743   -6.7899   -7.9098 C   0  0  0  0  0  0  0  0  0  0  0  0
   18.5757   -8.0625   -8.7397 C   0  0  0  0  0  0  0  0  0  0  0  0
  1  2  1  0
  2  3  1  0
  3  4  1  0
  4  5  2  0
  5  6  1  0
  6  7  2  0
  7  8  1  0
  8  9  1  0
  9 10  1  0
 10 11  1  0
 11 12  2  3
 12 13  1  0
 13 14  2  3
 14 15  1  0
 14 16  1  0
 10 17  1  6
 17 18  2  0
 18 19  1  0
 19 20  2  3
 20 21  1  0
 21 22  1  6
 22 23  1  0
 23 24  1  0
 24 25  1  0
 25 26  2  3
 26 27  1  0
 27 28  2  3
 28 29  1  0
 29 30  1  0
 30 31  1  0
 31 32  2  3
 32 33  1  0
 33 34  2  3
 34 35  1  0
  1 16  2  3
 28  1  1  0
  8  3  2  0
 18  7  1  0
 34 20  1  0
 35 21  1  0
M  END
>  <docking_score>  (3) 
-6.2709999999999999

$$$$
