
     RDKit          3D

 20 21  0  0  0  0  0  0  0  0999 V2000
   16.7070   -2.1233   -2.1706 C   0  0  0  0  0  0  0  0  0  0  0  0
   18.0290   -2.3102   -2.5157 C   0  0  0  0  0  0  0  0  0  0  0  0
   18.4187   -2.2211   -3.8310 C   0  0  0  0  0  0  0  0  0  0  0  0
   17.5162   -1.9459   -4.8394 C   0  0  0  0  0  0  0  0  0  0  0  0
   16.1963   -1.7596   -4.4959 C   0  0  0  0  0  0  0  0  0  0  0  0
   15.8173   -1.8508   -3.1757 C   0  0  0  0  0  0  0  0  0  0  0  0
   15.2133   -1.4598   -5.5768 C   0  0  0  0  0  0  0  0  0  0  0  0
   15.0387   -2.7517   -6.3793 C   0  0  0  0  0  0  0  0  0  0  0  0
   14.2726   -3.7160   -5.5188 C   0  0  0  0  0  0  0  0  0  0  0  0
   14.8771   -5.1043   -5.6737 C   0  0  1  0  0  0  0  0  0  0  0  0
   15.2214   -5.3175   -7.0815 C   0  0  0  0  0  0  0  0  0  0  0  0
   16.2384   -6.1629   -7.3524 C   0  0  0  0  0  0  0  0  0  0  0  0
   16.9102   -6.7919   -6.2529 C   0  0  1  0  0  0  0  0  0  0  0  0
   17.8667   -8.2147   -6.4921 S   0  0  0  0  0  0  0  0  0  0  0  0
   19.5194   -7.9069   -7.0306 N   0  0  0  0  0  0  0  0  0  0  0  0
   20.0168   -8.9051   -7.9397 C   0  0  0  0  0  0  0  0  0  0  0  0
   15.9596   -5.3221   -4.7436 N   0  0  0  0  0  0  0  0  0  0  0  0
   16.9319   -6.1226   -5.0101 N   0  0  0  0  0  4  0  0  0  0  0  0
   17.9548   -6.2787   -4.0438 C   0  0  0  0  0  0  0  0  0  0  0  0
   17.8770   -5.8323   -2.8369 N   0  0  0  0  0  0  0  0  0  0  0  0
  1  2  2  0
  2  3  1  0
  3  4  2  0
  4  5  1  0
  5  6  2  0
  5  7  1  0
  7  8  1  0
  8  9  1  0
 10  9  1  6
 10 11  1  0
 11 12  2  0
 12 13  1  0
 13 14  1  6
 14 15  1  0
 15 16  1  0
 10 17  1  0
 17 18  2  0
 18 19  1  0
 19 20  2  0
  6  1  1  0
 18 13  1  0
M  CHG  1  18   1
M  END
>  <docking_score>  (1) 
-4.056

$$$$

     RDKit          3D

 20 21  0  0  0  0  0  0  0  0999 V2000
    2.8764    5.6896    7.4433 C   0  0  0  0  0  0  0  0  0  0  0  0
    2.6850    4.5700    6.6613 C   0  0  0  0  0  0  0  0  0  0  0  0
    2.7085    4.6726    5.2906 C   0  0  0  0  0  0  0  0  0  0  0  0
    2.9209    5.8804    4.6558 C   0  0  0  0  0  0  0  0  0  0  0  0
    3.1115    6.9986    5.4355 C   0  0  0  0  0  0  0  0  0  0  0  0
    3.0863    6.8843    6.8071 C   0  0  0  0  0  0  0  0  0  0  0  0
    3.3438    8.3080    4.7602 C   0  0  0  0  0  0  0  0  0  0  0  0
    4.7328    8.2300    4.1214 C   0  0  0  0  0  0  0  0  0  0  0  0
    4.7002    9.0614    2.8704 C   0  0  0  0  0  0  0  0  0  0  0  0
    5.7944   10.1165    2.9497 C   0  0  1  0  0  0  0  0  0  0  0  0
    6.2146   10.4673    1.5909 C   0  0  0  0  0  0  0  0  0  0  0  0
    6.7039   11.7096    1.3920 C   0  0  0  0  0  0  0  0  0  0  0  0
    6.7796   12.5980    2.5149 C   0  0  1  0  0  0  0  0  0  0  0  0
    7.8063   13.9911    2.4786 S   0  0  0  0  0  0  0  0  0  0  0  0
    9.1291   13.9594    3.6471 N   0  0  0  0  0  0  0  0  0  0  0  0
   10.2885   14.6935    3.2141 C   0  0  0  0  0  0  0  0  0  0  0  0
    5.3984   11.2357    3.7714 N   0  0  0  0  0  0  0  0  0  0  0  0
    5.8610   12.4203    3.5722 N   0  0  0  0  0  4  0  0  0  0  0  0
    5.4205   13.4631    4.4225 C   0  0  0  0  0  0  0  0  0  0  0  0
    4.2876   14.0648    4.2935 N   0  0  0  0  0  0  0  0  0  0  0  0
  1  2  2  0
  2  3  1  0
  3  4  2  0
  4  5  1  0
  5  6  2  0
  5  7  1  0
  7  8  1  0
  8  9  1  0
 10  9  1  6
 10 11  1  0
 11 12  2  0
 12 13  1  0
 13 14  1  6
 14 15  1  0
 15 16  1  0
 10 17  1  0
 17 18  2  0
 18 19  1  0
 19 20  2  0
  6  1  1  0
 18 13  1  0
M  CHG  1  18   1
M  END
>  <docking_score>  (2) 
-3.9790000000000001

$$$$

     RDKit          3D

 20 21  0  0  0  0  0  0  0  0999 V2000
   17.0544   -5.4485   -2.7746 C   0  0  0  0  0  0  0  0  0  0  0  0
   18.4293   -5.3907   -2.6871 C   0  0  0  0  0  0  0  0  0  0  0  0
   19.2082   -5.9411   -3.6772 C   0  0  0  0  0  0  0  0  0  0  0  0
   18.6524   -6.5623   -4.7782 C   0  0  0  0  0  0  0  0  0  0  0  0
   17.2800   -6.6209   -4.8662 C   0  0  0  0  0  0  0  0  0  0  0  0
   16.5098   -6.0662   -3.8692 C   0  0  0  0  0  0  0  0  0  0  0  0
   16.6691   -7.2877   -6.0522 C   0  0  0  0  0  0  0  0  0  0  0  0
   17.1628   -6.5257   -7.2847 C   0  0  0  0  0  0  0  0  0  0  0  0
   15.9561   -5.9559   -7.9749 C   0  0  0  0  0  0  0  0  0  0  0  0
   15.6626   -4.5777   -7.3994 C   0  0  1  0  0  0  0  0  0  0  0  0
   14.4959   -4.6699   -6.5184 C   0  0  0  0  0  0  0  0  0  0  0  0
   14.4105   -3.7838   -5.5037 C   0  0  0  0  0  0  0  0  0  0  0  0
   15.4595   -2.8175   -5.3554 C   0  0  1  0  0  0  0  0  0  0  0  0
   15.2170   -1.3779   -4.4252 S   0  0  0  0  0  0  0  0  0  0  0  0
   14.0702   -0.2342   -5.1272 N   0  0  0  0  0  0  0  0  0  0  0  0
   13.4098    0.5845   -4.1453 C   0  0  0  0  0  0  0  0  0  0  0  0
   16.8352   -3.9904   -6.7955 N   0  0  0  0  0  0  0  0  0  0  0  0
   16.7491   -3.1524   -5.8221 N   0  0  0  0  0  4  0  0  0  0  0  0
   17.9479   -2.6237   -5.2856 C   0  0  0  0  0  0  0  0  0  0  0  0
   19.1234   -2.9213   -5.7236 N   0  0  0  0  0  0  0  0  0  0  0  0
  1  2  2  0
  2  3  1  0
  3  4  2  0
  4  5  1  0
  5  6  2  0
  5  7  1  0
  7  8  1  0
  8  9  1  0
 10  9  1  1
 10 11  1  0
 11 12  2  0
 12 13  1  0
 13 14  1  1
 14 15  1  0
 15 16  1  0
 10 17  1  0
 17 18  2  0
 18 19  1  0
 19 20  2  0
  6  1  1  0
 18 13  1  0
M  CHG  1  18   1
M  END
>  <docking_score>  (3) 
-3.8239999999999998

$$$$
