
     RDKit          3D

 25 25  0  0  0  0  0  0  0  0999 V2000
   19.5310   -1.5148   -4.5557 C   0  0  0  0  0  0  0  0  0  0  0  0
   18.6759   -2.7488   -4.4825 C   0  0  1  0  0  0  0  0  0  0  0  0
   19.5091   -3.9900   -4.2452 C   0  0  0  0  0  0  0  0  0  0  0  0
   19.5884   -4.3268   -2.7513 C   0  0  2  0  0  0  0  0  0  0  0  0
   18.4227   -5.0148   -2.3586 O   0  0  0  0  0  0  0  0  0  0  0  0
   19.7613   -3.0462   -1.9390 C   0  0  2  0  0  0  0  0  0  0  0  0
   19.8750   -3.3997   -0.6095 O   0  0  0  0  0  0  0  0  0  0  0  0
   18.5628   -2.1477   -2.1075 C   0  0  1  0  0  0  0  0  0  0  0  0
   19.0698   -0.8542   -2.3009 O   0  0  0  0  0  0  0  0  0  0  0  0
   17.7215   -2.5709   -3.3098 C   0  0  1  0  0  0  0  0  0  0  0  0
   16.7888   -1.4966   -3.6222 N   0  0  0  0  0  0  0  0  0  0  0  0
   15.4361   -1.9360   -3.5439 C   0  0  0  0  0  3  0  0  0  0  0  0
   14.7132   -1.8754   -4.8176 C   0  0  2  0  0  0  0  0  0  0  0  0
   14.1268   -0.5982   -5.2490 C   0  0  0  0  0  0  0  0  0  0  0  0
   14.2029   -3.0335   -5.2621 O   0  0  0  0  0  0  0  0  0  0  0  0
   14.9432   -3.8399   -6.0581 C   0  0  1  0  0  0  0  0  0  0  0  0
   16.0353   -3.2683   -6.6567 O   0  0  0  0  0  0  0  0  0  0  0  0
   15.1798   -5.1751   -5.4297 C   0  0  1  0  0  0  0  0  0  0  0  0
   14.0031   -5.9307   -5.3573 O   0  0  0  0  0  0  0  0  0  0  0  0
   16.2327   -5.9257   -6.2398 C   0  0  2  0  0  0  0  0  0  0  0  0
   15.7713   -6.1542   -7.5388 O   0  0  0  0  0  0  0  0  0  0  0  0
   16.5042   -7.2478   -5.5333 C   0  0  0  0  0  3  0  0  0  0  0  0
   17.9186   -7.2768   -4.9916 C   0  0  0  0  0  0  0  0  0  0  0  0
   18.8935   -7.1737   -6.1251 C   0  0  0  0  0  3  0  0  0  0  0  0
   19.2864   -8.4507   -6.5366 O   0  0  0  0  0  0  0  0  0  0  0  0
  2  1  1  1
  2  3  1  0
  3  4  1  0
  4  5  1  1
  4  6  1  0
  6  7  1  1
  6  8  1  0
  8  9  1  6
  8 10  1  0
 10 11  1  6
 11 12  1  0
 12 13  1  0
 13 14  1  1
 13 15  1  0
 15 16  1  0
 16 17  1  1
 16 18  1  0
 18 19  1  6
 18 20  1  0
 20 21  1  6
 20 22  1  0
 22 23  1  0
 23 24  1  0
 24 25  1  0
 10  2  1  0
M  RAD  3  12   2  22   2  24   2
M  END
>  <docking_score>  (1) 
-4.0700000000000003

$$$$

     RDKit          3D

 25 25  0  0  0  0  0  0  0  0999 V2000
   19.5757   -0.9380   -4.0342 C   0  0  0  0  0  0  0  0  0  0  0  0
   19.0147   -2.3171   -4.2401 C   0  0  1  0  0  0  0  0  0  0  0  0
   20.0908   -3.3767   -4.1377 C   0  0  0  0  0  0  0  0  0  0  0  0
   20.1687   -3.9518   -2.7184 C   0  0  2  0  0  0  0  0  0  0  0  0
   19.1676   -4.9292   -2.5480 O   0  0  0  0  0  0  0  0  0  0  0  0
   20.0110   -2.8307   -1.6947 C   0  0  2  0  0  0  0  0  0  0  0  0
   20.1342   -3.3851   -0.4365 O   0  0  0  0  0  0  0  0  0  0  0  0
   18.6522   -2.1898   -1.8180 C   0  0  1  0  0  0  0  0  0  0  0  0
   18.8670   -0.8053   -1.7509 O   0  0  0  0  0  0  0  0  0  0  0  0
   17.9875   -2.5580   -3.1427 C   0  0  1  0  0  0  0  0  0  0  0  0
   16.8554   -1.6663   -3.3551 N   0  0  0  0  0  0  0  0  0  0  0  0
   15.6829   -2.3850   -3.7262 C   0  0  0  0  0  3  0  0  0  0  0  0
   15.1559   -2.0282   -5.0465 C   0  0  2  0  0  0  0  0  0  0  0  0
   14.7913   -0.6303   -5.3190 C   0  0  0  0  0  0  0  0  0  0  0  0
   14.5776   -3.0209   -5.7390 O   0  0  0  0  0  0  0  0  0  0  0  0
   15.2740   -3.6739   -6.6983 C   0  0  1  0  0  0  0  0  0  0  0  0
   16.5880   -3.9445   -6.4193 O   0  0  0  0  0  0  0  0  0  0  0  0
   14.4926   -4.8092   -7.2764 C   0  0  1  0  0  0  0  0  0  0  0  0
   15.3024   -5.6645   -8.0336 O   0  0  0  0  0  0  0  0  0  0  0  0
   13.8315   -5.5858   -6.1415 C   0  0  2  0  0  0  0  0  0  0  0  0
   12.7310   -4.8796   -5.6489 O   0  0  0  0  0  0  0  0  0  0  0  0
   14.8718   -5.7782   -5.0453 C   0  0  0  0  0  3  0  0  0  0  0  0
   15.1685   -7.2510   -4.8510 C   0  0  0  0  0  0  0  0  0  0  0  0
   16.5417   -7.5597   -5.3660 C   0  0  0  0  0  3  0  0  0  0  0  0
   17.5012   -6.8827   -4.6074 O   0  0  0  0  0  0  0  0  0  0  0  0
  2  1  1  1
  2  3  1  0
  3  4  1  0
  4  5  1  6
  4  6  1  0
  6  7  1  1
  6  8  1  0
  8  9  1  6
  8 10  1  0
 10 11  1  6
 11 12  1  0
 12 13  1  0
 13 14  1  1
 13 15  1  0
 15 16  1  0
 16 17  1  1
 16 18  1  0
 18 19  1  1
 18 20  1  0
 20 21  1  1
 20 22  1  0
 22 23  1  0
 23 24  1  0
 24 25  1  0
 10  2  1  0
M  RAD  3  12   2  22   2  24   2
M  END
>  <docking_score>  (2) 
-3.423

$$$$

     RDKit          3D

 25 25  0  0  0  0  0  0  0  0999 V2000
   19.7240   -7.3272   -4.2003 C   0  0  0  0  0  0  0  0  0  0  0  0
   19.3008   -7.0139   -5.6081 C   0  0  1  0  0  0  0  0  0  0  0  0
   18.2705   -8.0015   -6.1124 C   0  0  0  0  0  0  0  0  0  0  0  0
   16.8464   -7.4772   -5.8923 C   0  0  2  0  0  0  0  0  0  0  0  0
   16.5095   -6.5756   -6.9219 O   0  0  0  0  0  0  0  0  0  0  0  0
   16.7470   -6.8020   -4.5270 C   0  0  2  0  0  0  0  0  0  0  0  0
   15.4415   -6.3887   -4.3526 O   0  0  0  0  0  0  0  0  0  0  0  0
   17.6551   -5.6005   -4.4643 C   0  0  1  0  0  0  0  0  0  0  0  0
   18.3033   -5.6665   -3.2221 O   0  0  0  0  0  0  0  0  0  0  0  0
   18.6793   -5.6242   -5.5968 C   0  0  1  0  0  0  0  0  0  0  0  0
   19.7185   -4.6474   -5.3005 N   0  0  0  0  0  0  0  0  0  0  0  0
   19.2988   -3.3226   -5.6133 C   0  0  0  0  0  3  0  0  0  0  0  0
   19.2831   -3.0236   -7.0481 C   0  0  2  0  0  0  0  0  0  0  0  0
   20.5193   -3.1846   -7.8274 C   0  0  0  0  0  0  0  0  0  0  0  0
   18.3329   -2.1728   -7.4632 O   0  0  0  0  0  0  0  0  0  0  0  0
   17.2736   -2.6312   -8.1700 C   0  0  1  0  0  0  0  0  0  0  0  0
   17.3364   -3.9361   -8.5836 O   0  0  0  0  0  0  0  0  0  0  0  0
   15.9753   -2.2120   -7.5598 C   0  0  1  0  0  0  0  0  0  0  0  0
   14.9201   -2.2946   -8.4766 O   0  0  0  0  0  0  0  0  0  0  0  0
   15.6863   -3.0966   -6.3507 C   0  0  2  0  0  0  0  0  0  0  0  0
   14.6938   -4.0301   -6.6605 O   0  0  0  0  0  0  0  0  0  0  0  0
   15.2268   -2.1915   -5.2147 C   0  0  0  0  0  3  0  0  0  0  0  0
   16.3814   -1.8852   -4.2831 C   0  0  0  0  0  0  0  0  0  0  0  0
   16.0789   -2.4176   -2.9152 C   0  0  0  0  0  3  0  0  0  0  0  0
   16.3098   -1.4285   -1.9544 O   0  0  0  0  0  0  0  0  0  0  0  0
  2  1  1  1
  2  3  1  0
  3  4  1  0
  4  5  1  6
  4  6  1  0
  6  7  1  6
  6  8  1  0
  8  9  1  1
  8 10  1  0
 10 11  1  1
 11 12  1  0
 12 13  1  0
 13 14  1  1
 13 15  1  0
 15 16  1  0
 16 17  1  1
 16 18  1  0
 18 19  1  6
 18 20  1  0
 20 21  1  6
 20 22  1  0
 22 23  1  0
 23 24  1  0
 24 25  1  0
 10  2  1  0
M  RAD  3  12   2  22   2  24   2
M  END
>  <docking_score>  (3) 
-3.3599999999999999

$$$$
