
     RDKit          3D

 54 57  0  0  0  0  0  0  0  0999 V2000
    4.8005    7.6836    8.6512 C   0  0  0  0  0  0  0  0  0  0  0  0
    3.7093    7.3378    7.6619 C   0  0  2  0  0  0  0  0  0  0  0  0
    2.9267    6.1179    8.0624 C   0  0  0  0  0  0  0  0  0  0  0  0
    4.2697    7.0910    6.2819 C   0  0  0  0  0  0  0  0  0  0  0  0
    3.6643    8.0335    5.2606 C   0  0  0  0  0  0  0  0  0  0  0  0
    4.7633    8.6018    4.3864 C   0  0  0  0  0  0  0  0  0  0  0  0
    5.3322    9.8396    5.0406 C   0  0  1  0  0  0  0  0  0  0  0  0
    6.7945    9.6149    5.3472 C   0  0  0  0  0  0  0  0  0  0  0  0
    5.1424   10.9842    4.0646 C   0  0  0  0  0  3  0  0  0  0  0  0
    5.4562   12.2972    4.7540 C   0  0  2  0  0  0  0  0  0  0  0  0
    4.5495   13.3897    4.2504 C   0  0  0  0  0  0  0  0  0  0  0  0
    3.2369   13.3128    4.9956 C   0  0  0  0  0  0  0  0  0  0  0  0
    2.2610   14.2367    4.2991 C   0  0  0  0  0  0  0  0  0  0  0  0
    2.7553   11.8808    5.0074 C   0  0  0  0  0  0  0  0  0  0  0  0
    3.4747   13.7959    6.3815 C   0  0  0  0  0  0  0  0  0  0  0  0
    2.4779   14.3921    7.0390 C   0  0  0  0  0  0  0  0  0  0  0  0
    2.5926   14.9084    8.4065 C   0  0  0  0  0  0  0  0  0  0  0  0
    3.5713   14.1853    9.2693 C   0  0  2  0  0  0  0  0  0  0  0  0
    5.0029   14.4138    8.9174 C   0  0  1  0  0  0  0  0  0  0  0  0
    5.5979   13.3724    8.2438 O   0  0  0  0  0  0  0  0  0  0  0  0
    5.2323   15.7402    8.2709 C   0  0  0  0  0  0  0  0  0  0  0  0
    6.2330   15.6309    7.1502 C   0  0  0  0  0  0  0  0  0  0  0  0
    7.6122   16.0746    7.5400 C   0  0  0  0  0  0  0  0  0  0  0  0
    8.6019   15.0580    6.9819 C   0  0  2  0  0  0  0  0  0  0  0  0
    7.9687   14.1759    6.1107 O   0  0  0  0  0  0  0  0  0  0  0  0
    7.2194   14.8210    5.2462 O   0  0  0  0  0  0  0  0  0  0  0  0
    7.1090   14.0538    4.0725 C   0  0  0  0  0  0  0  0  0  0  0  0
    6.9158   12.6158    4.4501 C   0  0  0  0  0  0  0  0  0  0  0  0
    9.0656   14.3274    8.0886 O   0  0  0  0  0  0  0  0  0  0  0  0
    9.1781   15.2131    9.1739 C   0  0  0  0  0  0  0  0  0  0  0  0
   10.3073   14.8280    9.8875 O   0  0  0  0  0  0  0  0  0  0  0  0
    9.8445   14.0884   10.9930 C   0  0  0  0  0  0  0  0  0  0  0  0
    8.6421   14.7987   11.5801 C   0  0  2  0  0  0  0  0  0  0  0  0
    9.1071   15.8572   12.9767 S   0  0  0  0  0  0  0  0  0  0  0  0
    7.7144   16.0701   13.9554 O   0  0  0  0  0  0  0  0  0  0  0  0
    7.6635   13.7509   12.0179 C   0  0  0  0  0  0  0  0  0  0  0  0
    6.2912   14.3285   12.3103 C   0  0  0  0  0  0  0  0  0  0  0  0
    5.3232   13.1709   12.3359 C   0  0  2  0  0  0  0  0  0  0  0  0
    4.0590   13.4469   11.5933 C   0  0  0  0  0  0  0  0  0  0  0  0
    5.0972   12.6298   13.7224 C   0  0  0  0  0  0  0  0  0  0  0  0
    5.2676   11.1227   13.6550 C   0  0  0  0  0  0  0  0  0  0  0  0
    4.3031   10.4937   14.6318 C   0  0  0  0  0  0  0  0  0  0  0  0
    4.1610    8.7446   14.3897 S   0  0  0  0  0  3  0  0  0  0  0  0
    2.5651    8.2986   13.7528 C   0  0  0  0  0  0  0  0  0  0  0  0
    5.3984    8.1390   13.4361 O   0  0  0  0  0  0  0  0  0  0  0  0
    5.3225    8.6060   12.1278 C   0  0  0  0  0  0  0  0  0  0  0  0
    4.9901    7.5241   11.1463 C   0  0  0  0  0  3  0  0  0  0  0  0
    4.1984    8.0398    9.9718 C   0  0  1  0  0  0  0  0  0  0  0  0
    3.8782    9.7523   10.1752 S   0  0  0  0  0  3  0  0  0  0  0  0
    2.2603   10.0936   10.4449 O   0  0  0  0  0  0  0  0  0  0  0  0
    4.5796   10.7492    8.9113 C   0  0  0  0  0  0  0  0  0  0  0  0
    3.6147   11.8032    8.4702 C   0  0  0  0  0  0  0  0  0  0  0  0
    3.2273   12.7631    9.5497 C   0  0  1  0  0  0  0  0  0  0  0  0
    3.8372   12.3500   10.7320 O   0  0  0  0  0  0  0  0  0  0  0  0
  1  2  1  0
  2  3  1  1
  2  4  1  0
  4  5  1  0
  5  6  1  0
  6  7  1  0
  7  8  1  6
  7  9  1  0
 10  9  1  6
 10 11  1  0
 11 12  1  0
 12 13  1  0
 12 14  1  0
 12 15  1  0
 15 16  2  3
 16 17  1  0
 18 17  1  6
 18 19  1  0
 19 20  1  6
 19 21  1  0
 21 22  1  0
 22 23  1  0
 23 24  1  0
 24 25  1  6
 25 26  1  0
 26 27  1  0
 27 28  1  0
 24 29  1  0
 29 30  1  0
 30 31  1  0
 31 32  1  0
 32 33  1  0
 33 34  1  1
 34 35  1  0
 33 36  1  0
 36 37  1  0
 38 37  1  1
 38 39  1  0
 38 40  1  0
 40 41  1  0
 41 42  1  0
 42 43  1  0
 43 44  1  6
 43 45  1  0
 45 46  1  0
 46 47  1  0
 48 47  1  1
 48 49  1  0
 49 50  1  6
 49 51  1  0
 51 52  1  0
 53 52  1  6
 53 54  1  0
 48  1  1  0
 28 10  1  0
 53 18  1  0
 54 39  1  0
M  CHG  2  43   1  49   1
M  RAD  2   9   2  47   2
M  END
>  <docking_score>  (1) 
2.855

$$$$
