
     RDKit          3D

 15 14  0  0  0  0  0  0  0  0999 V2000
   13.7650    0.1267   -4.2277 O   0  0  0  0  0  0  0  0  0  0  0  0
   14.1907   -0.2716   -5.5076 C   0  0  0  0  0  0  0  0  0  0  0  0
   15.4046   -1.1501   -5.3153 C   0  0  0  0  0  3  0  0  0  0  0  0
   14.9837   -2.3925   -4.6590 N   0  0  0  0  0  0  0  0  0  0  0  0
   16.1006   -3.2469   -4.3930 C   0  0  2  0  0  0  0  0  0  0  0  0
   16.3856   -4.2676   -5.4542 C   0  0  0  0  0  0  0  0  0  0  0  0
   15.2219   -4.7818   -6.0155 O   0  0  0  0  0  0  0  0  0  0  0  0
   16.1411   -3.7688   -2.9981 C   0  0  1  0  0  0  0  0  0  0  0  0
   16.7371   -5.0335   -3.0147 O   0  0  0  0  0  0  0  0  0  0  0  0
   17.0819   -2.8835   -2.2023 C   0  0  2  0  0  0  0  0  0  0  0  0
   16.5185   -1.6263   -1.9699 O   0  0  0  0  0  0  0  0  0  0  0  0
   18.4077   -2.7253   -2.9204 C   0  0  0  0  0  3  0  0  0  0  0  0
   18.8816   -1.3162   -2.6418 C   0  0  0  0  0  3  0  0  0  0  0  0
   20.1589   -1.2904   -1.3560 S   0  0  0  0  0  0  0  0  0  0  0  0
   20.2281   -2.8875   -0.6852 O   0  0  0  0  0  0  0  0  0  0  0  0
  1  2  1  0
  2  3  1  0
  3  4  1  0
  4  5  1  0
  5  6  1  6
  6  7  1  0
  5  8  1  0
  8  9  1  6
  8 10  1  0
 10 11  1  6
 10 12  1  0
 12 13  1  0
 13 14  1  0
 14 15  1  0
M  RAD  3   3   2  12   2  13   2
M  END
>  <docking_score>  (1) 
-3.302

$$$$

     RDKit          3D

 15 14  0  0  0  0  0  0  0  0999 V2000
   15.2178   -5.2311   -5.3057 O   0  0  0  0  0  0  0  0  0  0  0  0
   15.1586   -4.1793   -6.2375 C   0  0  0  0  0  0  0  0  0  0  0  0
   15.6230   -2.9312   -5.5242 C   0  0  0  0  0  3  0  0  0  0  0  0
   16.6133   -3.3123   -4.5115 N   0  0  0  0  0  0  0  0  0  0  0  0
   16.1305   -3.0596   -3.1881 C   0  0  2  0  0  0  0  0  0  0  0  0
   15.7358   -1.6383   -2.9173 C   0  0  0  0  0  0  0  0  0  0  0  0
   16.0295   -1.2498   -1.6148 O   0  0  0  0  0  0  0  0  0  0  0  0
   16.9482   -3.6951   -2.1170 C   0  0  1  0  0  0  0  0  0  0  0  0
   16.1639   -4.6557   -1.4712 O   0  0  0  0  0  0  0  0  0  0  0  0
   18.0686   -4.4663   -2.7893 C   0  0  2  0  0  0  0  0  0  0  0  0
   17.8228   -5.8414   -2.7638 O   0  0  0  0  0  0  0  0  0  0  0  0
   19.3987   -4.1718   -2.1240 C   0  0  0  0  0  3  0  0  0  0  0  0
   19.3501   -2.7239   -1.6891 C   0  0  0  0  0  3  0  0  0  0  0  0
   20.2521   -1.6565   -2.8433 S   0  0  0  0  0  0  0  0  0  0  0  0
   19.0717   -0.9400   -3.8915 O   0  0  0  0  0  0  0  0  0  0  0  0
  1  2  1  0
  2  3  1  0
  3  4  1  0
  4  5  1  0
  5  6  1  1
  6  7  1  0
  5  8  1  0
  8  9  1  6
  8 10  1  0
 10 11  1  1
 10 12  1  0
 12 13  1  0
 13 14  1  0
 14 15  1  0
M  RAD  3   3   2  12   2  13   2
M  END
>  <docking_score>  (2) 
-3.1299999999999999

$$$$

     RDKit          3D

 15 14  0  0  0  0  0  0  0  0999 V2000
   18.6478   -1.7164   -1.8952 O   0  0  0  0  0  0  0  0  0  0  0  0
   17.7394   -1.6264   -2.9650 C   0  0  0  0  0  0  0  0  0  0  0  0
   16.3646   -1.8980   -2.4007 C   0  0  0  0  0  3  0  0  0  0  0  0
   15.3956   -1.8819   -3.5018 N   0  0  0  0  0  0  0  0  0  0  0  0
   15.8530   -2.6616   -4.6113 C   0  0  2  0  0  0  0  0  0  0  0  0
   15.7432   -1.9893   -5.9474 C   0  0  0  0  0  0  0  0  0  0  0  0
   14.9414   -0.8540   -5.9007 O   0  0  0  0  0  0  0  0  0  0  0  0
   15.3890   -4.0771   -4.5850 C   0  0  1  0  0  0  0  0  0  0  0  0
   14.8045   -4.3754   -5.8196 O   0  0  0  0  0  0  0  0  0  0  0  0
   16.6173   -4.9627   -4.4891 C   0  0  2  0  0  0  0  0  0  0  0  0
   16.4633   -6.1255   -5.2481 O   0  0  0  0  0  0  0  0  0  0  0  0
   16.9058   -5.3277   -3.0462 C   0  0  0  0  0  3  0  0  0  0  0  0
   18.2271   -6.0639   -3.0454 C   0  0  0  0  0  3  0  0  0  0  0  0
   19.6015   -4.9557   -3.4557 S   0  0  0  0  0  0  0  0  0  0  0  0
   20.3962   -4.5683   -1.9645 O   0  0  0  0  0  0  0  0  0  0  0  0
  1  2  1  0
  2  3  1  0
  3  4  1  0
  4  5  1  0
  5  6  1  6
  6  7  1  0
  5  8  1  0
  8  9  1  6
  8 10  1  0
 10 11  1  6
 10 12  1  0
 12 13  1  0
 13 14  1  0
 14 15  1  0
M  RAD  3   3   2  12   2  13   2
M  END
>  <docking_score>  (3) 
-3.0249999999999999

$$$$
