
     RDKit          3D

 24 25  0  0  0  0  0  0  0  0999 V2000
   19.0815   -4.8565   -2.7449 C   0  0  0  0  0  0  0  0  0  0  0  0
   19.2752   -5.1729   -4.0851 O   0  0  0  0  0  0  0  0  0  0  0  0
   19.5543   -6.5370   -4.1926 C   0  0  0  0  0  3  0  0  0  0  0  0
   18.6604   -7.1750   -5.0472 O   0  0  0  0  0  0  0  0  0  0  0  0
   17.5976   -6.3532   -5.4047 C   0  0  2  0  0  0  0  0  0  0  0  0
   16.6436   -6.2810   -4.2622 C   0  0  0  0  0  0  0  0  0  0  0  0
   15.2277   -6.0260   -4.6577 C   0  0  0  0  0  3  0  0  0  0  0  0
   17.0049   -6.8800   -6.6741 C   0  0  0  0  0  3  0  0  0  0  0  0
   16.4622   -5.7483   -7.5354 C   0  0  0  0  0  3  0  0  0  0  0  0
   15.0573   -5.4611   -7.0664 C   0  0  0  0  0  0  0  0  0  0  0  0
   15.0708   -4.9115   -5.6526 C   0  0  1  0  0  0  0  0  0  0  0  0
   13.8248   -4.2901   -5.4642 O   0  0  0  0  0  0  0  0  0  0  0  0
   16.1377   -3.8573   -5.5147 C   0  0  0  0  0  0  0  0  0  0  0  0
   15.5342   -2.4725   -5.3922 C   0  0  0  0  0  0  0  0  0  0  0  0
   15.2107   -2.2364   -4.0637 O   0  0  0  0  0  0  0  0  0  0  0  0
   16.1303   -2.8387   -3.2187 C   0  0  0  0  0  0  0  0  0  0  0  0
   17.5413   -2.7246   -3.7868 C   0  0  0  0  0  0  0  0  0  0  0  0
   18.4685   -2.4321   -2.6613 C   0  0  2  0  0  0  0  0  0  0  0  0
   19.0510   -1.0560   -2.6707 C   0  0  0  0  0  0  0  0  0  0  0  0
   19.2576   -0.7072   -4.0235 O   0  0  0  0  0  0  0  0  0  0  0  0
   20.3577    0.1015   -4.1938 C   0  0  0  0  0  2  0  0  0  0  0  0
   19.5396   -3.4419   -2.4432 C   0  0  1  0  0  0  0  0  0  0  0  0
   19.9144   -3.4111   -0.9657 C   0  0  0  0  0  0  0  0  0  0  0  0
   21.3815   -3.8268   -0.8662 C   0  0  0  0  0  2  0  0  0  0  0  0
  1  2  1  0
  2  3  1  0
  3  4  1  0
  4  5  1  0
  5  6  1  0
  6  7  1  0
  5  8  1  6
  8  9  1  0
  9 10  1  0
 10 11  1  0
 11 12  1  1
 11 13  1  0
 13 14  1  0
 14 15  1  0
 15 16  1  0
 16 17  1  0
 17 18  1  0
 18 19  1  6
 19 20  1  0
 20 21  1  0
 18 22  1  0
 22 23  1  1
 23 24  1  0
 22  1  1  0
 11  7  1  0
M  RAD  6   3   2   7   2   8   2   9   2  21   3  24   3
M  END
>  <docking_score>  (1) 
-5.5380000000000003

$$$$

     RDKit          3D

 24 25  0  0  0  0  0  0  0  0999 V2000
   17.8635   -6.4273   -5.0420 C   0  0  0  0  0  0  0  0  0  0  0  0
   17.9591   -5.5970   -6.1534 O   0  0  0  0  0  0  0  0  0  0  0  0
   17.2982   -6.1987   -7.2264 C   0  0  0  0  0  3  0  0  0  0  0  0
   16.3104   -5.3688   -7.7477 O   0  0  0  0  0  0  0  0  0  0  0  0
   16.0834   -4.2550   -6.9470 C   0  0  2  0  0  0  0  0  0  0  0  0
   15.2799   -4.6726   -5.7636 C   0  0  0  0  0  0  0  0  0  0  0  0
   14.4243   -3.5938   -5.1888 C   0  0  0  0  0  3  0  0  0  0  0  0
   15.4423   -3.1963   -7.7886 C   0  0  0  0  0  3  0  0  0  0  0  0
   15.8658   -1.8062   -7.3355 C   0  0  0  0  0  3  0  0  0  0  0  0
   14.9397   -1.3968   -6.2171 C   0  0  0  0  0  0  0  0  0  0  0  0
   15.1427   -2.2873   -5.0060 C   0  0  1  0  0  0  0  0  0  0  0  0
   14.5850   -1.5968   -3.9168 O   0  0  0  0  0  0  0  0  0  0  0  0
   16.6131   -2.4678   -4.7338 C   0  0  0  0  0  0  0  0  0  0  0  0
   17.0413   -1.7170   -3.4890 C   0  0  0  0  0  0  0  0  0  0  0  0
   16.7973   -2.5098   -2.3767 O   0  0  0  0  0  0  0  0  0  0  0  0
   17.0023   -3.8489   -2.6723 C   0  0  0  0  0  0  0  0  0  0  0  0
   18.2044   -4.0203   -3.5953 C   0  0  0  0  0  0  0  0  0  0  0  0
   18.9624   -5.2187   -3.1467 C   0  0  2  0  0  0  0  0  0  0  0  0
   20.2934   -4.9253   -2.5341 C   0  0  0  0  0  0  0  0  0  0  0  0
   20.2922   -3.5564   -2.1865 O   0  0  0  0  0  0  0  0  0  0  0  0
   20.4138   -3.3602   -0.8302 C   0  0  0  0  0  2  0  0  0  0  0  0
   19.0899   -6.3035   -4.1574 C   0  0  1  0  0  0  0  0  0  0  0  0
   19.2217   -7.6247   -3.4079 C   0  0  0  0  0  0  0  0  0  0  0  0
   20.4025   -8.3740   -4.0238 C   0  0  0  0  0  2  0  0  0  0  0  0
  1  2  1  0
  2  3  1  0
  3  4  1  0
  4  5  1  0
  5  6  1  0
  6  7  1  0
  5  8  1  6
  8  9  1  0
  9 10  1  0
 10 11  1  0
 11 12  1  1
 11 13  1  0
 13 14  1  0
 14 15  1  0
 15 16  1  0
 16 17  1  0
 17 18  1  0
 18 19  1  6
 19 20  1  0
 20 21  1  0
 18 22  1  0
 22 23  1  1
 23 24  1  0
 22  1  1  0
 11  7  1  0
M  RAD  6   3   2   7   2   8   2   9   2  21   3  24   3
M  END
>  <docking_score>  (2) 
-5.4009999999999998

$$$$

     RDKit          3D

 24 25  0  0  0  0  0  0  0  0999 V2000
   16.7045   -7.0132   -5.8380 C   0  0  0  0  0  0  0  0  0  0  0  0
   16.4557   -5.6764   -6.1296 O   0  0  0  0  0  0  0  0  0  0  0  0
   15.0814   -5.4430   -6.0467 C   0  0  0  0  0  3  0  0  0  0  0  0
   14.7904   -4.4225   -5.1466 O   0  0  0  0  0  0  0  0  0  0  0  0
   15.9031   -4.0435   -4.4042 C   0  0  2  0  0  0  0  0  0  0  0  0
   16.1472   -5.0691   -3.3510 C   0  0  0  0  0  0  0  0  0  0  0  0
   16.8196   -4.5458   -2.1262 C   0  0  0  0  0  3  0  0  0  0  0  0
   15.6676   -2.6615   -3.8800 C   0  0  0  0  0  3  0  0  0  0  0  0
   16.9716   -1.8817   -3.7880 C   0  0  0  0  0  3  0  0  0  0  0  0
   17.6021   -2.2162   -2.4588 C   0  0  0  0  0  0  0  0  0  0  0  0
   18.0099   -3.6767   -2.4164 C   0  0  1  0  0  0  0  0  0  0  0  0
   18.9381   -3.7917   -1.3679 O   0  0  0  0  0  0  0  0  0  0  0  0
   18.7084   -4.0589   -3.6950 C   0  0  0  0  0  0  0  0  0  0  0  0
   20.1922   -4.2721   -3.4721 C   0  0  0  0  0  0  0  0  0  0  0  0
   20.4015   -5.5729   -3.0370 O   0  0  0  0  0  0  0  0  0  0  0  0
   19.4995   -6.4420   -3.6318 C   0  0  0  0  0  0  0  0  0  0  0  0
   19.2593   -6.0574   -5.0882 C   0  0  0  0  0  0  0  0  0  0  0  0
   19.1885   -7.3085   -5.8892 C   0  0  2  0  0  0  0  0  0  0  0  0
   20.3425   -7.5272   -6.8131 C   0  0  0  0  0  0  0  0  0  0  0  0
   20.0940   -6.7558   -7.9697 O   0  0  0  0  0  0  0  0  0  0  0  0
   21.1657   -5.9635   -8.3112 C   0  0  0  0  0  2  0  0  0  0  0  0
   17.9050   -7.5289   -6.6092 C   0  0  1  0  0  0  0  0  0  0  0  0
   17.7102   -9.0331   -6.7636 C   0  0  0  0  0  0  0  0  0  0  0  0
   17.0724   -9.5381   -5.4700 C   0  0  0  0  0  2  0  0  0  0  0  0
  1  2  1  0
  2  3  1  0
  3  4  1  0
  4  5  1  0
  5  6  1  0
  6  7  1  0
  5  8  1  1
  8  9  1  0
  9 10  1  0
 10 11  1  0
 11 12  1  1
 11 13  1  0
 13 14  1  0
 14 15  1  0
 15 16  1  0
 16 17  1  0
 17 18  1  0
 18 19  1  6
 19 20  1  0
 20 21  1  0
 18 22  1  0
 22 23  1  1
 23 24  1  0
 22  1  1  0
 11  7  1  0
M  RAD  6   3   2   7   2   8   2   9   2  21   3  24   3
M  END
>  <docking_score>  (3) 
-5.085

$$$$
