
     RDKit          3D

 20 19  0  0  0  0  0  0  0  0999 V2000
   15.2626   -7.3948   -4.8768 C   0  0  0  0  0  0  0  0  0  0  0  0
   16.6301   -7.7586   -5.6114 O   0  0  0  0  0  0  0  0  0  0  0  0
   17.5828   -7.2051   -4.7230 C   0  0  0  0  0  0  0  0  0  0  0  0
   17.5574   -6.1564   -4.4001 C   0  0  0  0  0  0  0  0  0  0  0  0
   17.1368   -4.6430   -4.1354 C   0  0  0  0  0  0  0  0  0  0  0  0
   17.9720   -4.6089   -5.9234 C   0  0  0  0  0  0  0  0  0  0  0  0
   17.6360   -2.9717   -5.6888 C   0  0  0  0  0  0  0  0  0  0  0  0
   17.4078   -1.9633   -6.4864 C   0  0  1  0  0  0  0  0  0  0  0  0
   15.9805   -1.5341   -6.5195 C   0  0  0  0  0  0  0  0  0  0  0  0
   15.5455   -0.6576   -5.4309 O   0  0  0  0  0  0  0  0  0  0  0  0
   14.3805   -1.0261   -5.0874 O   0  0  0  0  0  0  0  0  0  0  0  0
   13.5628   -0.1390   -4.5120 C   0  0  0  0  0  0  0  0  0  0  0  0
   17.9669   -0.6030   -5.6812 C   0  0  0  0  0  0  0  0  0  0  0  0
   18.8588   -1.2445   -4.6229 C   0  0  0  0  0  0  0  0  0  0  0  0
   20.2640   -0.7021   -4.6282 N   0  0  0  0  0  0  0  0  0  0  0  0
   20.8936   -1.5885   -3.5902 C   0  0  0  0  0  0  0  0  0  0  0  0
   21.0876   -2.9310   -4.2479 C   0  0  0  0  0  0  0  0  0  0  0  0
   20.7237   -4.0610   -3.1282 C   0  0  0  0  0  3  0  0  0  0  0  0
   20.3815   -3.2987   -1.9012 C   0  0  0  0  0  0  0  0  0  0  0  0
   19.2432   -3.5067   -1.3016 C   0  0  0  0  0  0  0  0  0  0  0  0
  1  2  1  0
  2  3  1  0
  3  4  2  3
  4  5  1  0
  5  6  2  3
  6  7  1  0
  8  7  1  1
  8  9  1  0
  9 10  1  0
 10 11  1  0
 11 12  1  0
  8 13  1  0
 13 14  1  0
 14 15  1  0
 15 16  1  0
 16 17  1  0
 17 18  1  0
 18 19  1  0
 19 20  2  0
M  RAD  1  18   2
M  END
>  <docking_score>  (1) 
-2.7690000000000001

$$$$

     RDKit          3D

 20 19  0  0  0  0  0  0  0  0999 V2000
    3.3276    6.4064    3.6386 C   0  0  0  0  0  0  0  0  0  0  0  0
    4.4906    7.4858    3.4815 O   0  0  0  0  0  0  0  0  0  0  0  0
    4.9866    7.5600    4.8050 C   0  0  0  0  0  0  0  0  0  0  0  0
    5.0368    8.4994    5.3705 C   0  0  0  0  0  0  0  0  0  0  0  0
    4.8818   10.0099    5.8517 C   0  0  0  0  0  0  0  0  0  0  0  0
    6.5242   10.0154    4.7570 C   0  0  0  0  0  0  0  0  0  0  0  0
    6.4815   11.6163    5.2894 C   0  0  0  0  0  0  0  0  0  0  0  0
    6.7323   12.7705    4.7325 C   0  0  1  0  0  0  0  0  0  0  0  0
    6.8120   12.7154    3.2448 C   0  0  0  0  0  0  0  0  0  0  0  0
    7.9540   13.3983    2.6348 O   0  0  0  0  0  0  0  0  0  0  0  0
    8.7302   13.7553    3.5734 O   0  0  0  0  0  0  0  0  0  0  0  0
    9.8874   14.3502    3.2674 C   0  0  0  0  0  0  0  0  0  0  0  0
    5.2936   13.6301    4.7856 C   0  0  0  0  0  0  0  0  0  0  0  0
    5.7654   14.9368    5.4155 C   0  0  0  0  0  0  0  0  0  0  0  0
    5.6581   14.9398    6.9180 N   0  0  0  0  0  0  0  0  0  0  0  0
    4.3608   14.2008    7.0920 C   0  0  0  0  0  0  0  0  0  0  0  0
    4.5907   13.2069    8.2019 C   0  0  0  0  0  0  0  0  0  0  0  0
    5.3877   13.9987    9.3855 C   0  0  0  0  0  3  0  0  0  0  0  0
    5.6259   12.9837   10.4423 C   0  0  0  0  0  0  0  0  0  0  0  0
    4.8418   11.9470   10.5381 C   0  0  0  0  0  0  0  0  0  0  0  0
  1  2  1  0
  2  3  1  0
  3  4  2  3
  4  5  1  0
  5  6  2  3
  6  7  1  0
  8  7  1  1
  8  9  1  0
  9 10  1  0
 10 11  1  0
 11 12  1  0
  8 13  1  0
 13 14  1  0
 14 15  1  0
 15 16  1  0
 16 17  1  0
 17 18  1  0
 18 19  1  0
 19 20  2  0
M  RAD  1  18   2
M  END
>  <docking_score>  (2) 
-2.4079999999999999

$$$$

     RDKit          3D

 20 19  0  0  0  0  0  0  0  0999 V2000
    3.0221    8.4743   11.3554 C   0  0  0  0  0  0  0  0  0  0  0  0
    3.9149    9.7000   10.8627 O   0  0  0  0  0  0  0  0  0  0  0  0
    3.9109    9.5056    9.4608 C   0  0  0  0  0  0  0  0  0  0  0  0
    4.1121   10.3144    8.7467 C   0  0  0  0  0  0  0  0  0  0  0  0
    4.5088   11.7025    8.0736 C   0  0  0  0  0  0  0  0  0  0  0  0
    4.7936   10.3713    6.6445 C   0  0  0  0  0  0  0  0  0  0  0  0
    5.3117   11.7848    5.8816 C   0  0  0  0  0  0  0  0  0  0  0  0
    5.0107   12.3788    4.7584 C   0  0  1  0  0  0  0  0  0  0  0  0
    5.9638   12.0870    3.6498 C   0  0  0  0  0  0  0  0  0  0  0  0
    6.6635   13.2401    3.0810 O   0  0  0  0  0  0  0  0  0  0  0  0
    7.5825   13.5668    3.8932 O   0  0  0  0  0  0  0  0  0  0  0  0
    8.8254   13.1243    3.6788 C   0  0  0  0  0  0  0  0  0  0  0  0
    3.7332   11.5108    4.1058 C   0  0  0  0  0  0  0  0  0  0  0  0
    4.2108   11.3385    2.6674 C   0  0  0  0  0  0  0  0  0  0  0  0
    3.6301   10.1222    1.9948 N   0  0  0  0  0  0  0  0  0  0  0  0
    3.0249    9.4270    3.1821 C   0  0  0  0  0  0  0  0  0  0  0  0
    3.0815    7.9517    2.8772 C   0  0  0  0  0  0  0  0  0  0  0  0
    2.8256    7.1694    4.2862 C   0  0  0  0  0  3  0  0  0  0  0  0
    4.1618    7.0681    4.9248 C   0  0  0  0  0  0  0  0  0  0  0  0
    4.8856    5.9977    4.7545 C   0  0  0  0  0  0  0  0  0  0  0  0
  1  2  1  0
  2  3  1  0
  3  4  2  3
  4  5  1  0
  5  6  2  3
  6  7  1  0
  8  7  1  1
  8  9  1  0
  9 10  1  0
 10 11  1  0
 11 12  1  0
  8 13  1  0
 13 14  1  0
 14 15  1  0
 15 16  1  0
 16 17  1  0
 17 18  1  0
 18 19  1  0
 19 20  2  0
M  RAD  1  18   2
M  END
>  <docking_score>  (3) 
-2.2120000000000002

$$$$
