
     RDKit          3D

 11 11  0  0  0  0  0  0  0  0999 V2000
   13.9364    0.0503   -5.5983 O   0  0  0  0  0  0  0  0  0  0  0  0
   14.9149   -0.9016   -5.7839 C   0  0  0  0  0  0  0  0  0  0  0  0
   14.7722   -1.9134   -4.6483 C   0  0  1  0  0  0  0  0  0  0  0  0
   14.3405   -3.1940   -5.1159 N   0  0  0  0  0  0  0  0  0  0  0  0
   15.3753   -4.1501   -5.3077 C   0  0  0  0  0  0  0  0  0  0  0  0
   16.2380   -4.3785   -4.0985 C   0  0  2  0  0  0  0  0  0  0  0  0
   15.9999   -5.6154   -3.5198 O   0  0  0  0  0  0  0  0  0  0  0  0
   16.1077   -3.2638   -3.0850 C   0  0  1  0  0  0  0  0  0  0  0  0
   17.2479   -3.3013   -2.2748 O   0  0  0  0  0  0  0  0  0  0  0  0
   16.0100   -1.9530   -3.8048 C   0  0  1  0  0  0  0  0  0  0  0  0
   17.1599   -1.6847   -4.5546 O   0  0  0  0  0  0  0  0  0  0  0  0
  1  2  1  0
  3  2  1  6
  3  4  1  0
  4  5  1  0
  5  6  1  0
  6  7  1  1
  6  8  1  0
  8  9  1  1
  8 10  1  0
 10 11  1  6
 10  3  1  0
M  END
>  <docking_score>  (1) 
-3.5920000000000001

$$$$

     RDKit          3D

 11 11  0  0  0  0  0  0  0  0999 V2000
    5.2832   -4.2477   -8.6961 O   0  0  0  0  0  0  0  0  0  0  0  0
    4.7891   -3.0274   -8.2904 C   0  0  0  0  0  0  0  0  0  0  0  0
    5.9923   -2.1593   -7.9263 C   0  0  1  0  0  0  0  0  0  0  0  0
    5.9245   -0.8624   -8.5249 N   0  0  0  0  0  0  0  0  0  0  0  0
    5.4257    0.1691   -7.6829 C   0  0  0  0  0  0  0  0  0  0  0  0
    6.1594    0.3117   -6.3790 C   0  0  2  0  0  0  0  0  0  0  0  0
    6.9355    1.4598   -6.3454 O   0  0  0  0  0  0  0  0  0  0  0  0
    6.9788   -0.9151   -6.0474 C   0  0  1  0  0  0  0  0  0  0  0  0
    7.2120   -0.9007   -4.6678 O   0  0  0  0  0  0  0  0  0  0  0  0
    6.2130   -2.1406   -6.4443 C   0  0  1  0  0  0  0  0  0  0  0  0
    5.0115   -2.2545   -5.7374 O   0  0  0  0  0  0  0  0  0  0  0  0
  1  2  1  0
  3  2  1  1
  3  4  1  0
  4  5  1  0
  5  6  1  0
  6  7  1  6
  6  8  1  0
  8  9  1  1
  8 10  1  0
 10 11  1  1
 10  3  1  0
M  END
>  <docking_score>  (2) 
-3.5819999999999999

$$$$

     RDKit          3D

 11 11  0  0  0  0  0  0  0  0999 V2000
   18.3939   -6.4649   -3.6651 O   0  0  0  0  0  0  0  0  0  0  0  0
   17.1490   -5.9826   -4.0047 C   0  0  0  0  0  0  0  0  0  0  0  0
   17.2969   -4.4763   -4.2118 C   0  0  1  0  0  0  0  0  0  0  0  0
   16.4788   -3.9943   -5.2810 N   0  0  0  0  0  0  0  0  0  0  0  0
   15.2403   -3.4188   -4.8852 C   0  0  0  0  0  0  0  0  0  0  0  0
   15.3675   -2.3096   -3.8791 C   0  0  2  0  0  0  0  0  0  0  0  0
   15.0981   -1.0704   -4.4388 O   0  0  0  0  0  0  0  0  0  0  0  0
   16.7112   -2.3187   -3.1856 C   0  0  1  0  0  0  0  0  0  0  0  0
   16.5668   -1.6118   -1.9868 O   0  0  0  0  0  0  0  0  0  0  0  0
   17.1191   -3.7362   -2.9210 C   0  0  1  0  0  0  0  0  0  0  0  0
   16.2203   -4.3852   -2.0682 O   0  0  0  0  0  0  0  0  0  0  0  0
  1  2  1  0
  3  2  1  1
  3  4  1  0
  4  5  1  0
  5  6  1  0
  6  7  1  6
  6  8  1  0
  8  9  1  1
  8 10  1  0
 10 11  1  1
 10  3  1  0
M  END
>  <docking_score>  (3) 
-3.3029999999999999

$$$$
