
     RDKit          3D

 24 25  0  0  0  0  0  0  0  0999 V2000
   14.8199   -2.3241   -5.6660 C   0  0  0  0  0  0  0  0  0  0  0  0
   14.6667   -3.6356   -4.9224 C   0  0  1  0  0  0  0  0  0  0  0  0
   13.8368   -4.5343   -5.8010 C   0  0  0  0  0  0  0  0  0  0  0  0
   14.4399   -5.8897   -6.0184 C   0  0  2  0  0  0  0  0  0  0  0  0
   14.3498   -6.6481   -4.8442 O   0  0  0  0  0  0  0  0  0  0  0  0
   15.8569   -5.8450   -6.5197 C   0  0  2  0  0  0  0  0  0  0  0  0
   16.5063   -7.0127   -6.0946 O   0  0  0  0  0  0  0  0  0  0  0  0
   16.6021   -4.6391   -5.9890 C   0  0  1  0  0  0  0  0  0  0  0  0
   16.3642   -3.5324   -6.8190 O   0  0  0  0  0  0  0  0  0  0  0  0
   15.9746   -4.3095   -4.6398 C   0  0  1  0  0  0  0  0  0  0  0  0
   16.9173   -3.5045   -3.9217 N   0  0  0  0  0  0  0  0  0  0  0  0
   18.2875   -3.6946   -4.3183 C   0  0  1  0  0  0  0  0  0  0  0  0
   18.9435   -2.3454   -4.5898 C   0  0  0  0  0  0  0  0  0  0  0  0
   18.6180   -1.4231   -3.5963 O   0  0  0  0  0  0  0  0  0  0  0  0
   19.7282   -0.8074   -3.0458 C   0  0  0  0  0  0  0  0  0  0  0  0
   19.8295   -1.0009   -1.5501 C   0  0  0  0  0  0  0  0  0  0  0  0
   20.7147   -2.0605   -1.2956 O   0  0  0  0  0  0  0  0  0  0  0  0
   19.9632   -3.2172   -1.0353 C   0  0  2  0  0  0  0  0  0  0  0  0
   20.7522   -4.3571   -1.2528 O   0  0  0  0  0  0  0  0  0  0  0  0
   18.8105   -3.2056   -2.0019 C   0  0  2  0  0  0  0  0  0  0  0  0
   17.5922   -3.4371   -1.3644 O   0  0  0  0  0  0  0  0  0  0  0  0
   19.0094   -4.2517   -3.0942 C   0  0  1  0  0  0  0  0  0  0  0  0
   18.3305   -5.3859   -2.6516 O   0  0  0  0  0  0  0  0  0  0  0  0
   18.6526   -6.4682   -3.3022 O   0  0  0  0  0  0  0  0  0  0  0  0
  2  1  1  6
  2  3  1  0
  3  4  1  0
  4  5  1  1
  4  6  1  0
  6  7  1  1
  6  8  1  0
  8  9  1  6
  8 10  1  0
 10 11  1  6
 12 11  1  1
 12 13  1  0
 13 14  1  0
 14 15  1  0
 15 16  1  0
 16 17  1  0
 17 18  1  0
 18 19  1  6
 18 20  1  0
 20 21  1  1
 20 22  1  0
 22 23  1  1
 23 24  1  0
 10  2  1  0
 22 12  1  0
M  END
>  <docking_score>  (1) 
-5.452

$$$$

     RDKit          3D

 24 25  0  0  0  0  0  0  0  0999 V2000
   14.6953   -2.2779   -5.5241 C   0  0  0  0  0  0  0  0  0  0  0  0
   14.6738   -3.6657   -4.9159 C   0  0  1  0  0  0  0  0  0  0  0  0
   13.7398   -4.4917   -5.7608 C   0  0  0  0  0  0  0  0  0  0  0  0
   14.3273   -5.7956   -6.2108 C   0  0  2  0  0  0  0  0  0  0  0  0
   14.4219   -6.6780   -5.1270 O   0  0  0  0  0  0  0  0  0  0  0  0
   15.6553   -5.6516   -6.9015 C   0  0  2  0  0  0  0  0  0  0  0  0
   16.3791   -6.8363   -6.7054 O   0  0  0  0  0  0  0  0  0  0  0  0
   16.4497   -4.4858   -6.3527 C   0  0  1  0  0  0  0  0  0  0  0  0
   16.0750   -3.3049   -7.0125 O   0  0  0  0  0  0  0  0  0  0  0  0
   16.0200   -4.3232   -4.8995 C   0  0  1  0  0  0  0  0  0  0  0  0
   17.0437   -3.5695   -4.2389 N   0  0  0  0  0  0  0  0  0  0  0  0
   17.2255   -3.9008   -2.8503 C   0  0  1  0  0  0  0  0  0  0  0  0
   18.1471   -5.1082   -2.7189 C   0  0  0  0  0  0  0  0  0  0  0  0
   19.2480   -4.9905   -3.5662 O   0  0  0  0  0  0  0  0  0  0  0  0
   20.4546   -5.1657   -2.9120 C   0  0  0  0  0  0  0  0  0  0  0  0
   21.3789   -3.9776   -3.0504 C   0  0  0  0  0  0  0  0  0  0  0  0
   21.2601   -3.1827   -1.8993 O   0  0  0  0  0  0  0  0  0  0  0  0
   20.4105   -2.1033   -2.1881 C   0  0  2  0  0  0  0  0  0  0  0  0
   19.8863   -1.5775   -0.9973 O   0  0  0  0  0  0  0  0  0  0  0  0
   19.2950   -2.6511   -3.0357 C   0  0  2  0  0  0  0  0  0  0  0  0
   19.0768   -1.8777   -4.1752 O   0  0  0  0  0  0  0  0  0  0  0  0
   17.9992   -2.7376   -2.2352 C   0  0  1  0  0  0  0  0  0  0  0  0
   17.3156   -1.5529   -2.5041 O   0  0  0  0  0  0  0  0  0  0  0  0
   16.3067   -1.3454   -1.7057 O   0  0  0  0  0  0  0  0  0  0  0  0
  2  1  1  6
  2  3  1  0
  3  4  1  0
  4  5  1  1
  4  6  1  0
  6  7  1  1
  6  8  1  0
  8  9  1  6
  8 10  1  0
 10 11  1  1
 12 11  1  6
 12 13  1  0
 13 14  1  0
 14 15  1  0
 15 16  1  0
 16 17  1  0
 17 18  1  0
 18 19  1  1
 18 20  1  0
 20 21  1  6
 20 22  1  0
 22 23  1  6
 23 24  1  0
 10  2  1  0
 22 12  1  0
M  END
>  <docking_score>  (2) 
-5.242

$$$$

     RDKit          3D

 24 25  0  0  0  0  0  0  0  0999 V2000
   20.0435   -5.2382   -2.5089 C   0  0  0  0  0  0  0  0  0  0  0  0
   19.0901   -4.0905   -2.2439 C   0  0  1  0  0  0  0  0  0  0  0  0
   19.8081   -3.1381   -1.3241 C   0  0  0  0  0  0  0  0  0  0  0  0
   19.7916   -1.7153   -1.7968 C   0  0  2  0  0  0  0  0  0  0  0  0
   18.5068   -1.1767   -1.6508 O   0  0  0  0  0  0  0  0  0  0  0  0
   20.2876   -1.5429   -3.2059 C   0  0  2  0  0  0  0  0  0  0  0  0
   19.6693   -0.4080   -3.7496 O   0  0  0  0  0  0  0  0  0  0  0  0
   19.9647   -2.7462   -4.0655 C   0  0  1  0  0  0  0  0  0  0  0  0
   20.9703   -3.7149   -3.9212 O   0  0  0  0  0  0  0  0  0  0  0  0
   18.6928   -3.3549   -3.4872 C   0  0  1  0  0  0  0  0  0  0  0  0
   18.1168   -4.1778   -4.5085 N   0  0  0  0  0  0  0  0  0  0  0  0
   16.7182   -4.4632   -4.3258 C   0  0  1  0  0  0  0  0  0  0  0  0
   15.9194   -3.1646   -4.3077 C   0  0  0  0  0  0  0  0  0  0  0  0
   16.3376   -2.3071   -5.3243 O   0  0  0  0  0  0  0  0  0  0  0  0
   15.2942   -1.8525   -6.1112 C   0  0  0  0  0  0  0  0  0  0  0  0
   15.4697   -2.1869   -7.5749 C   0  0  0  0  0  0  0  0  0  0  0  0
   14.7296   -3.3452   -7.8605 O   0  0  0  0  0  0  0  0  0  0  0  0
   15.6048   -4.4426   -7.8718 C   0  0  2  0  0  0  0  0  0  0  0  0
   14.8837   -5.6295   -7.6702 O   0  0  0  0  0  0  0  0  0  0  0  0
   16.5677   -4.2342   -6.7348 C   0  0  2  0  0  0  0  0  0  0  0  0
   17.8927   -4.4029   -7.1351 O   0  0  0  0  0  0  0  0  0  0  0  0
   16.2665   -5.1937   -5.5877 C   0  0  1  0  0  0  0  0  0  0  0  0
   17.1003   -6.2919   -5.7921 O   0  0  0  0  0  0  0  0  0  0  0  0
   16.8200   -7.3046   -5.0213 O   0  0  0  0  0  0  0  0  0  0  0  0
  2  1  1  6
  2  3  1  0
  3  4  1  0
  4  5  1  6
  4  6  1  0
  6  7  1  6
  6  8  1  0
  8  9  1  1
  8 10  1  0
 10 11  1  6
 12 11  1  6
 12 13  1  0
 13 14  1  0
 14 15  1  0
 15 16  1  0
 16 17  1  0
 17 18  1  0
 18 19  1  1
 18 20  1  0
 20 21  1  6
 20 22  1  0
 22 23  1  6
 23 24  1  0
 10  2  1  0
 22 12  1  0
M  END
>  <docking_score>  (3) 
-4.7210000000000001

$$$$
