
     RDKit          3D

 25 27  0  0  0  0  0  0  0  0999 V2000
   20.8985   -0.5884   -1.4073 C   0  0  0  0  0  0  0  0  0  0  0  0
   19.8274   -1.6147   -1.2305 C   0  0  0  0  0  0  0  0  0  0  0  0
   20.3237   -3.0343   -1.4061 C   0  0  0  0  0  0  0  0  0  0  0  0
   18.6735   -1.3036   -2.1569 C   0  0  0  0  0  3  0  0  0  0  0  0
   17.7923   -2.5156   -2.3759 C   0  0  0  0  0  0  0  0  0  0  0  0
   17.1969   -2.3791   -3.7640 C   0  0  1  0  0  0  0  0  0  0  0  0
   18.2333   -2.8084   -4.6649 O   0  0  0  0  0  0  0  0  0  0  0  0
   17.9452   -2.9694   -6.0195 C   0  0  0  0  0  0  0  0  0  0  0  0
   18.5291   -3.7872   -6.7697 O   0  0  0  0  0  0  0  0  0  0  0  0
   16.8890   -2.1183   -6.5824 C   0  0  2  0  0  0  0  0  0  0  0  0
   16.4747   -1.0104   -5.6818 C   0  0  0  0  0  0  0  0  0  0  0  0
   14.7407   -0.6425   -5.9434 Cl  0  0  0  0  0  0  0  0  0  0  0  0
   15.8399   -2.8206   -7.2907 C   0  0  0  0  0  0  0  0  0  0  0  0
   15.2246   -3.9334   -7.0154 C   0  0  0  0  0  0  0  0  0  0  0  0
   14.1643   -4.5804   -7.7926 C   0  0  0  0  0  0  0  0  0  0  0  0
   13.8437   -5.6670   -7.1493 C   0  0  0  0  0  0  0  0  0  0  0  0
   14.6192   -5.8324   -5.9515 C   0  0  0  0  0  0  0  0  0  0  0  0
   15.4571   -4.7873   -5.8636 C   0  0  0  0  0  0  0  0  0  0  0  0
   16.1157   -3.4287   -3.8715 C   0  0  0  0  0  0  0  0  0  0  0  0
   16.4425   -4.5317   -4.8065 C   0  0  1  0  0  0  0  0  0  0  0  0
   16.7670   -5.7609   -3.9941 C   0  0  0  0  0  3  0  0  0  0  0  0
   18.0492   -6.3173   -4.2866 N   0  0  0  0  0  0  0  0  0  0  0  0
   19.1491   -5.7596   -3.7194 O   0  0  0  0  0  0  0  0  0  0  0  0
   18.7893   -7.1561   -3.5450 C   0  0  2  0  0  0  0  0  0  0  0  0
   19.7979   -7.9953   -4.1975 N   0  0  0  0  0  0  0  0  0  0  0  0
  1  2  1  0
  2  3  1  0
  2  4  1  0
  4  5  1  0
  6  5  1  1
  6  7  1  0
  7  8  1  0
  8  9  2  0
  8 10  1  0
 10 11  1  1
 11 12  1  0
 10 13  1  0
 13 14  2  3
 14 15  1  0
 15 16  2  0
 16 17  1  0
 17 18  2  0
  6 19  1  0
 19 20  1  0
 20 21  1  1
 21 22  1  0
 22 23  1  0
 23 24  1  0
 24 25  1  6
 18 14  1  0
 20 18  1  0
 24 22  1  0
M  RAD  2   4   2  21   2
M  END
>  <docking_score>  (1) 
-5.3239999999999998

$$$$

     RDKit          3D

 25 27  0  0  0  0  0  0  0  0999 V2000
   20.1917   -3.2226   -0.5233 C   0  0  0  0  0  0  0  0  0  0  0  0
   19.8073   -3.3895   -1.9572 C   0  0  0  0  0  0  0  0  0  0  0  0
   20.9700   -3.2201   -2.9122 C   0  0  0  0  0  0  0  0  0  0  0  0
   18.6680   -2.4511   -2.2860 C   0  0  0  0  0  3  0  0  0  0  0  0
   17.3855   -3.2073   -2.5631 C   0  0  0  0  0  0  0  0  0  0  0  0
   16.9314   -2.8049   -3.9529 C   0  0  1  0  0  0  0  0  0  0  0  0
   18.0387   -3.1139   -4.8179 O   0  0  0  0  0  0  0  0  0  0  0  0
   17.8793   -3.0231   -6.2000 C   0  0  0  0  0  0  0  0  0  0  0  0
   18.5117   -3.7213   -7.0277 O   0  0  0  0  0  0  0  0  0  0  0  0
   16.9052   -2.0422   -6.6959 C   0  0  2  0  0  0  0  0  0  0  0  0
   16.4344   -1.0922   -5.6538 C   0  0  0  0  0  0  0  0  0  0  0  0
   14.7098   -0.6980   -5.9380 Cl  0  0  0  0  0  0  0  0  0  0  0  0
   15.9118   -2.5644   -7.6104 C   0  0  0  0  0  0  0  0  0  0  0  0
   15.2440   -3.6808   -7.5947 C   0  0  0  0  0  0  0  0  0  0  0  0
   14.2476   -4.1360   -8.5679 C   0  0  0  0  0  0  0  0  0  0  0  0
   13.8380   -5.3037   -8.1602 C   0  0  0  0  0  0  0  0  0  0  0  0
   14.4890   -5.7090   -6.9457 C   0  0  0  0  0  0  0  0  0  0  0  0
   15.3414   -4.7321   -6.5972 C   0  0  0  0  0  0  0  0  0  0  0  0
   15.8387   -3.7723   -4.3435 C   0  0  0  0  0  0  0  0  0  0  0  0
   16.2259   -4.7077   -5.4264 C   0  0  1  0  0  0  0  0  0  0  0  0
   16.4380   -6.0727   -4.8199 C   0  0  0  0  0  3  0  0  0  0  0  0
   17.5838   -6.7541   -5.3320 N   0  0  0  0  0  0  0  0  0  0  0  0
   18.0191   -7.8712   -4.6957 O   0  0  0  0  0  0  0  0  0  0  0  0
   17.6331   -7.8563   -6.0961 C   0  0  2  0  0  0  0  0  0  0  0  0
   18.8173   -8.1079   -6.9216 N   0  0  0  0  0  0  0  0  0  0  0  0
  1  2  1  0
  2  3  1  0
  2  4  1  0
  4  5  1  0
  6  5  1  1
  6  7  1  0
  7  8  1  0
  8  9  2  0
  8 10  1  0
 10 11  1  1
 11 12  1  0
 10 13  1  0
 13 14  2  3
 14 15  1  0
 15 16  2  0
 16 17  1  0
 17 18  2  0
  6 19  1  0
 19 20  1  0
 20 21  1  1
 21 22  1  0
 22 23  1  0
 23 24  1  0
 24 25  1  6
 18 14  1  0
 20 18  1  0
 24 22  1  0
M  RAD  2   4   2  21   2
M  END
>  <docking_score>  (2) 
-4.8120000000000003

$$$$

     RDKit          3D

 25 27  0  0  0  0  0  0  0  0999 V2000
   17.9097   -7.7094   -7.1560 C   0  0  0  0  0  0  0  0  0  0  0  0
   17.3843   -7.8630   -5.7659 C   0  0  0  0  0  0  0  0  0  0  0  0
   17.0507   -9.2956   -5.4070 C   0  0  0  0  0  0  0  0  0  0  0  0
   16.1997   -6.9437   -5.5704 C   0  0  0  0  0  3  0  0  0  0  0  0
   16.2837   -6.1987   -4.2546 C   0  0  0  0  0  0  0  0  0  0  0  0
   17.6342   -5.5093   -4.2271 C   0  0  1  0  0  0  0  0  0  0  0  0
   17.6268   -4.6159   -5.3547 O   0  0  0  0  0  0  0  0  0  0  0  0
   18.6651   -3.6991   -5.5139 C   0  0  0  0  0  0  0  0  0  0  0  0
   18.5397   -2.5866   -6.0790 O   0  0  0  0  0  0  0  0  0  0  0  0
   19.9789   -4.0800   -4.9794 C   0  0  2  0  0  0  0  0  0  0  0  0
   20.0713   -5.5126   -4.5930 C   0  0  0  0  0  0  0  0  0  0  0  0
   21.1201   -5.6772   -3.1496 Cl  0  0  0  0  0  0  0  0  0  0  0  0
   20.5878   -3.1153   -4.0882 C   0  0  0  0  0  0  0  0  0  0  0  0
   20.0712   -2.3845   -3.1439 C   0  0  0  0  0  0  0  0  0  0  0  0
   20.7646   -1.4246   -2.2808 C   0  0  0  0  0  0  0  0  0  0  0  0
   19.8634   -0.9246   -1.4838 C   0  0  0  0  0  0  0  0  0  0  0  0
   18.5603   -1.4761   -1.7309 C   0  0  0  0  0  0  0  0  0  0  0  0
   18.6780   -2.3602   -2.7342 C   0  0  0  0  0  0  0  0  0  0  0  0
   17.6337   -4.6145   -3.0099 C   0  0  0  0  0  0  0  0  0  0  0  0
   17.6070   -3.1673   -3.3304 C   0  0  1  0  0  0  0  0  0  0  0  0
   16.2285   -2.6387   -3.0196 C   0  0  0  0  0  3  0  0  0  0  0  0
   15.4624   -2.3215   -4.1823 N   0  0  0  0  0  0  0  0  0  0  0  0
   14.5116   -1.3567   -4.0960 O   0  0  0  0  0  0  0  0  0  0  0  0
   15.6174   -1.2977   -5.0361 C   0  0  2  0  0  0  0  0  0  0  0  0
   15.0929   -1.4114   -6.3996 N   0  0  0  0  0  0  0  0  0  0  0  0
  1  2  1  0
  2  3  1  0
  2  4  1  0
  4  5  1  0
  6  5  1  1
  6  7  1  0
  7  8  1  0
  8  9  2  0
  8 10  1  0
 10 11  1  1
 11 12  1  0
 10 13  1  0
 13 14  2  3
 14 15  1  0
 15 16  2  0
 16 17  1  0
 17 18  2  0
  6 19  1  0
 19 20  1  0
 20 21  1  1
 21 22  1  0
 22 23  1  0
 23 24  1  0
 24 25  1  6
 18 14  1  0
 20 18  1  0
 24 22  1  0
M  RAD  2   4   2  21   2
M  END
>  <docking_score>  (3) 
-4.8099999999999996

$$$$
