
     RDKit          3D

 11 12  0  0  0  0  0  0  0  0999 V2000
    6.1000   -1.9927   -6.1205 C   0  0  0  0  0  0  0  0  0  0  0  0
    6.6831   -1.0500   -5.4893 O   0  0  0  0  0  0  0  0  0  0  0  0
    6.9234    0.3393   -5.5622 C   0  0  0  0  0  0  0  0  0  0  0  0
    6.7949    1.1478   -6.5969 C   0  0  0  0  0  0  0  0  0  0  0  0
    6.3558    0.7497   -7.9432 C   0  0  0  0  0  0  0  0  0  0  0  0
    5.9005   -0.4710   -8.2818 C   0  0  0  0  0  0  0  0  0  0  0  0
    5.6936   -1.6304   -7.6350 C   0  0  0  0  0  0  0  0  0  0  0  0
    4.8460   -2.9897   -8.5252 S   0  0  0  0  0  0  0  0  0  0  0  0
    4.8476   -4.5981   -6.8403 C   0  0  0  0  0  0  0  0  0  0  0  0
    5.2818   -3.7115   -6.5766 C   0  0  0  0  0  0  0  0  0  0  0  0
    5.6107   -3.0299   -6.3880 C   0  0  0  0  0  0  0  0  0  0  0  0
  1  2  1  0
  2  3  1  0
  3  4  2  0
  4  5  1  0
  5  6  2  0
  6  7  1  0
  7  8  1  0
  8  9  1  0
  9 10  1  0
 10 11  3  0
 11  1  1  0
  1  7  2  0
M  END
>  <docking_score>  (1) 
-6.1779999999999999

$$$$

     RDKit          3D

 11 12  0  0  0  0  0  0  0  0999 V2000
    5.8160   -0.4533   -7.9854 C   0  0  0  0  0  0  0  0  0  0  0  0
    5.4327   -1.4094   -8.7380 O   0  0  0  0  0  0  0  0  0  0  0  0
    4.9827   -2.7461   -8.6761 C   0  0  0  0  0  0  0  0  0  0  0  0
    5.0731   -3.6039   -7.6778 C   0  0  0  0  0  0  0  0  0  0  0  0
    5.6870   -3.3308   -6.3693 C   0  0  0  0  0  0  0  0  0  0  0  0
    6.1315   -2.1292   -5.9561 C   0  0  0  0  0  0  0  0  0  0  0  0
    6.1846   -0.8940   -6.4821 C   0  0  0  0  0  0  0  0  0  0  0  0
    6.7216    0.4914   -5.4094 S   0  0  0  0  0  0  0  0  0  0  0  0
    6.5682    2.2353   -6.9461 C   0  0  0  0  0  0  0  0  0  0  0  0
    6.3076    1.3205   -7.3196 C   0  0  0  0  0  0  0  0  0  0  0  0
    6.1115    0.6167   -7.5925 C   0  0  0  0  0  0  0  0  0  0  0  0
  1  2  1  0
  2  3  1  0
  3  4  2  0
  4  5  1  0
  5  6  2  0
  6  7  1  0
  7  8  1  0
  8  9  1  0
  9 10  1  0
 10 11  3  0
 11  1  1  0
  1  7  2  0
M  END
>  <docking_score>  (2) 
-5.7629999999999999

$$$$

     RDKit          3D

 11 12  0  0  0  0  0  0  0  0999 V2000
    6.0060   -1.8805   -6.0056 C   0  0  0  0  0  0  0  0  0  0  0  0
    5.6149   -3.0749   -5.7871 O   0  0  0  0  0  0  0  0  0  0  0  0
    5.2413   -4.2528   -6.4698 C   0  0  0  0  0  0  0  0  0  0  0  0
    4.9060   -4.4035   -7.7369 C   0  0  0  0  0  0  0  0  0  0  0  0
    4.8512   -3.3289   -8.7400 C   0  0  0  0  0  0  0  0  0  0  0  0
    5.2569   -2.0607   -8.5419 C   0  0  0  0  0  0  0  0  0  0  0  0
    5.7908   -1.3739   -7.5179 C   0  0  0  0  0  0  0  0  0  0  0  0
    6.3682    0.3389   -7.8198 S   0  0  0  0  0  0  0  0  0  0  0  0
    7.1324    0.8583   -5.6816 C   0  0  0  0  0  0  0  0  0  0  0  0
    6.7486   -0.0842   -5.7744 C   0  0  0  0  0  0  0  0  0  0  0  0
    6.4528   -0.8010   -5.8584 C   0  0  0  0  0  0  0  0  0  0  0  0
  1  2  1  0
  2  3  1  0
  3  4  2  0
  4  5  1  0
  5  6  2  0
  6  7  1  0
  7  8  1  0
  8  9  1  0
  9 10  1  0
 10 11  3  0
 11  1  1  0
  1  7  2  0
M  END
>  <docking_score>  (3) 
-5.0579999999999998

$$$$
