
     RDKit          3D

 24 24  0  0  0  0  0  0  0  0999 V2000
   19.4345   -2.3687   -4.5194 C   0  0  0  0  0  0  0  0  0  0  0  0
   20.6323   -3.0782   -3.8426 C   0  0  1  0  0  0  0  0  0  0  0  0
   21.1837   -2.1179   -2.8386 C   0  0  0  0  0  0  0  0  0  0  0  0
   20.2059   -1.8483   -1.7317 C   0  0  2  0  0  0  0  0  0  0  0  0
   20.6137   -0.8531   -0.8661 O   0  0  0  0  0  0  0  0  0  0  0  0
   19.9770   -3.1710   -0.9956 C   0  0  2  0  0  0  0  0  0  0  0  0
   21.2441   -3.7903   -0.9507 O   0  0  0  0  0  0  0  0  0  0  0  0
   19.1454   -4.0168   -1.9976 C   0  0  1  0  0  0  0  0  0  0  0  0
   18.1779   -3.0998   -2.5167 O   0  0  0  0  0  0  0  0  0  0  0  0
   20.0854   -4.3282   -3.1414 C   0  0  1  0  0  0  0  0  0  0  0  0
   19.5076   -5.1867   -4.1227 N   0  0  0  0  0  0  0  0  0  0  0  0
   18.8438   -6.3282   -3.4363 C   0  0  0  0  0  3  0  0  0  0  0  0
   17.8292   -6.9035   -4.6143 C   0  0  2  0  0  0  0  0  0  0  0  0
   18.7235   -6.4607   -5.8676 C   0  0  0  0  0  0  0  0  0  0  0  0
   16.7802   -6.1304   -4.6109 O   0  0  0  0  0  0  0  0  0  0  0  0
   15.7897   -5.6233   -3.8799 C   0  0  0  0  0  0  0  0  0  0  0  0
   14.9189   -4.9067   -5.0094 O   0  0  0  0  0  0  0  0  0  0  0  0
   15.9785   -3.8241   -4.8420 O   0  0  0  0  0  0  0  0  0  0  0  0
   15.3577   -2.7348   -5.3571 C   0  0  2  0  0  0  0  0  0  0  0  0
   15.9416   -2.7498   -6.6432 O   0  0  0  0  0  0  0  0  0  0  0  0
   15.3525   -1.4709   -4.6652 C   0  0  2  0  0  0  0  0  0  0  0  0
   15.3461   -1.6979   -3.2051 O   0  0  0  0  0  0  0  0  0  0  0  0
   13.8391   -0.8718   -4.7888 C   0  0  0  0  0  3  0  0  0  0  0  0
   13.9484    0.0818   -5.8074 O   0  0  0  0  0  0  0  0  0  0  0  0
  2  1  1  1
  2  3  1  0
  3  4  1  0
  4  5  1  1
  4  6  1  0
  6  7  1  6
  6  8  1  0
  8  9  1  6
  8 10  1  0
 10 11  1  6
 11 12  1  0
 12 13  1  0
 13 14  1  6
 13 15  1  0
 15 16  1  0
 16 17  1  0
 17 18  1  0
 18 19  1  0
 19 20  1  6
 19 21  1  0
 21 22  1  1
 21 23  1  0
 23 24  1  0
 10  2  1  0
M  RAD  2  12   2  23   2
M  END
>  <docking_score>  (1) 
-3.8149999999999999

$$$$

     RDKit          3D

 24 24  0  0  0  0  0  0  0  0999 V2000
   18.0482   -5.9898   -3.0090 C   0  0  0  0  0  0  0  0  0  0  0  0
   19.3274   -6.5363   -3.6880 C   0  0  1  0  0  0  0  0  0  0  0  0
   19.0160   -7.9327   -4.1208 C   0  0  0  0  0  0  0  0  0  0  0  0
   17.9586   -7.9617   -5.1863 C   0  0  2  0  0  0  0  0  0  0  0  0
   17.5327   -9.2355   -5.5058 O   0  0  0  0  0  0  0  0  0  0  0  0
   18.5268   -7.2384   -6.4101 C   0  0  2  0  0  0  0  0  0  0  0  0
   19.8816   -7.6284   -6.4710 O   0  0  0  0  0  0  0  0  0  0  0  0
   18.5514   -5.7457   -5.9833 C   0  0  1  0  0  0  0  0  0  0  0  0
   17.2973   -5.5455   -5.3248 O   0  0  0  0  0  0  0  0  0  0  0  0
   19.6110   -5.6501   -4.9077 C   0  0  1  0  0  0  0  0  0  0  0  0
   19.8350   -4.3147   -4.4600 N   0  0  0  0  0  0  0  0  0  0  0  0
   21.1243   -4.2629   -3.7185 C   0  0  0  0  0  3  0  0  0  0  0  0
   20.9252   -2.9234   -2.7624 C   0  0  2  0  0  0  0  0  0  0  0  0
   20.5535   -3.7058   -1.4148 C   0  0  0  0  0  0  0  0  0  0  0  0
   19.8345   -2.3366   -3.1678 O   0  0  0  0  0  0  0  0  0  0  0  0
   19.0903   -1.2344   -3.1064 C   0  0  0  0  0  0  0  0  0  0  0  0
   17.7805   -1.7958   -2.3874 O   0  0  0  0  0  0  0  0  0  0  0  0
   17.3247   -1.9811   -3.8299 O   0  0  0  0  0  0  0  0  0  0  0  0
   16.0053   -2.2534   -3.6798 C   0  0  2  0  0  0  0  0  0  0  0  0
   16.0905   -3.0767   -2.5352 O   0  0  0  0  0  0  0  0  0  0  0  0
   15.2073   -2.7479   -4.7728 C   0  0  2  0  0  0  0  0  0  0  0  0
   15.9228   -2.5439   -6.0494 O   0  0  0  0  0  0  0  0  0  0  0  0
   14.0209   -1.6549   -5.0228 C   0  0  0  0  0  3  0  0  0  0  0  0
   14.7022   -0.4324   -5.0380 O   0  0  0  0  0  0  0  0  0  0  0  0
  2  1  1  6
  2  3  1  0
  3  4  1  0
  4  5  1  6
  4  6  1  0
  6  7  1  1
  6  8  1  0
  8  9  1  1
  8 10  1  0
 10 11  1  1
 11 12  1  0
 12 13  1  0
 13 14  1  1
 13 15  1  0
 15 16  1  0
 16 17  1  0
 17 18  1  0
 18 19  1  0
 19 20  1  1
 19 21  1  0
 21 22  1  6
 21 23  1  0
 23 24  1  0
 10  2  1  0
M  RAD  2  12   2  23   2
M  END
>  <docking_score>  (2) 
-3.7029999999999998

$$$$

     RDKit          3D

 24 24  0  0  0  0  0  0  0  0999 V2000
   14.5527   -0.7077   -5.5218 C   0  0  0  0  0  0  0  0  0  0  0  0
   15.2654   -1.8817   -6.2358 C   0  0  1  0  0  0  0  0  0  0  0  0
   16.7084   -1.5052   -6.3371 C   0  0  0  0  0  0  0  0  0  0  0  0
   17.3550   -1.4124   -4.9852 C   0  0  2  0  0  0  0  0  0  0  0  0
   18.6442   -0.9202   -5.0234 O   0  0  0  0  0  0  0  0  0  0  0  0
   17.3079   -2.8101   -4.3623 C   0  0  2  0  0  0  0  0  0  0  0  0
   17.5676   -3.6966   -5.4291 O   0  0  0  0  0  0  0  0  0  0  0  0
   15.8077   -3.0151   -4.0184 C   0  0  1  0  0  0  0  0  0  0  0  0
   15.4009   -1.7661   -3.4518 O   0  0  0  0  0  0  0  0  0  0  0  0
   15.0986   -3.1233   -5.3504 C   0  0  1  0  0  0  0  0  0  0  0  0
   13.7074   -3.4095   -5.2221 N   0  0  0  0  0  0  0  0  0  0  0  0
   13.3593   -4.5355   -6.1308 C   0  0  0  0  0  3  0  0  0  0  0  0
   14.8218   -5.2899   -6.3303 C   0  0  2  0  0  0  0  0  0  0  0  0
   14.6577   -5.6122   -7.8909 C   0  0  0  0  0  0  0  0  0  0  0  0
   14.7409   -6.4288   -5.7021 O   0  0  0  0  0  0  0  0  0  0  0  0
   15.0631   -7.1024   -4.5998 C   0  0  0  0  0  0  0  0  0  0  0  0
   15.8442   -8.3459   -5.2251 O   0  0  0  0  0  0  0  0  0  0  0  0
   17.0511   -7.4582   -4.9454 O   0  0  0  0  0  0  0  0  0  0  0  0
   18.0861   -8.2790   -5.2497 C   0  0  2  0  0  0  0  0  0  0  0  0
   18.9138   -7.9917   -4.1418 O   0  0  0  0  0  0  0  0  0  0  0  0
   18.7126   -8.2552   -6.5470 C   0  0  2  0  0  0  0  0  0  0  0  0
   20.1085   -7.7870   -6.4219 O   0  0  0  0  0  0  0  0  0  0  0  0
   18.1251   -6.9492   -7.3305 C   0  0  0  0  0  3  0  0  0  0  0  0
   17.7836   -7.4519   -8.5912 O   0  0  0  0  0  0  0  0  0  0  0  0
  2  1  1  1
  2  3  1  0
  3  4  1  0
  4  5  1  6
  4  6  1  0
  6  7  1  6
  6  8  1  0
  8  9  1  6
  8 10  1  0
 10 11  1  1
 11 12  1  0
 12 13  1  0
 13 14  1  6
 13 15  1  0
 15 16  1  0
 16 17  1  0
 17 18  1  0
 18 19  1  0
 19 20  1  1
 19 21  1  0
 21 22  1  1
 21 23  1  0
 23 24  1  0
 10  2  1  0
M  RAD  2  12   2  23   2
M  END
>  <docking_score>  (3) 
-3.4729999999999999

$$$$
