
     RDKit          3D

 31 32  0  0  0  0  0  0  0  0999 V2000
    2.2576   11.0643   15.2578 C   0  0  0  0  0  0  0  0  0  0  0  0
    2.7587   10.3259   14.0557 C   0  0  0  0  0  0  0  0  0  0  0  0
    2.9476    8.8680   14.3643 C   0  0  0  0  0  0  0  0  0  0  0  0
    4.0285   10.9548   13.5249 C   0  0  0  0  0  0  0  0  0  0  0  0
    3.7822   11.3669   12.0910 C   0  0  0  0  0  0  0  0  0  0  0  0
    4.4311   12.6989   11.7950 C   0  0  0  0  0  0  0  0  0  0  0  0
    4.5494   12.8343   10.3022 C   0  0  1  0  0  0  0  0  0  0  0  0
    5.8407   13.5149    9.9306 C   0  0  0  0  0  0  0  0  0  0  0  0
    4.2924   11.5755    9.5578 C   0  0  0  0  0  3  0  0  0  0  0  0
    4.5946   11.6136    8.1062 C   0  0  0  0  0  3  0  0  0  0  0  0
    3.9072   10.5308    7.3145 C   0  0  0  0  0  0  0  0  0  0  0  0
    3.4263   10.9852    5.9810 C   0  0  2  0  0  0  0  0  0  0  0  0
    4.5100   11.1936    4.9680 C   0  0  0  0  0  0  0  0  0  0  0  0
    2.4202   12.0875    6.0185 C   0  0  0  0  0  3  0  0  0  0  0  0
    3.0450   13.4431    5.8847 C   0  0  0  0  0  0  0  0  0  0  0  0
    3.9080   13.4734    4.6425 C   0  0  1  0  0  0  0  0  0  0  0  0
    2.9716   13.5729    3.4421 C   0  0  0  0  0  0  0  0  0  0  0  0
    4.7637   14.7365    4.6310 C   0  0  0  0  0  0  0  0  0  0  0  0
    6.2221   14.4150    4.8570 C   0  0  0  0  0  0  0  0  0  0  0  0
    7.0658   14.6517    3.6373 C   0  0  2  0  0  0  0  0  0  0  0  0
    7.5991   16.0587    3.5548 C   0  0  0  0  0  0  0  0  0  0  0  0
    6.4183   14.1977    2.3625 C   0  0  0  0  0  3  0  0  0  0  0  0
    7.4537   13.4881    1.5362 C   0  0  0  0  0  0  0  0  0  0  0  0
    6.9439   12.0965    1.1910 C   0  0  0  0  0  0  0  0  0  0  0  0
    6.0069   11.6822    2.3228 C   0  0  2  0  0  0  0  0  0  0  0  0
    6.8133   11.3002    3.5571 C   0  0  0  0  0  3  0  0  0  0  0  0
    5.5645   10.2404    2.1497 C   0  0  0  0  0  0  0  0  0  0  0  0
    6.1379    9.9501    3.5311 C   0  0  2  0  0  0  0  0  0  0  0  0
    5.0536    9.8251    4.5607 C   0  0  2  0  0  0  0  0  0  0  0  0
    3.9432    8.9790    3.9763 C   0  0  0  0  0  2  0  0  0  0  0  0
    5.5633    9.1917    5.6728 F   0  0  0  0  0  0  0  0  0  0  0  0
  1  2  1  0
  2  3  1  0
  2  4  1  0
  4  5  1  0
  5  6  1  0
  6  7  1  0
  7  8  1  1
  7  9  1  0
  9 10  1  0
 10 11  1  0
 12 11  1  1
 12 13  1  0
 12 14  1  0
 14 15  1  0
 15 16  1  0
 16 17  1  6
 16 18  1  0
 18 19  1  0
 19 20  1  0
 20 21  1  6
 20 22  1  0
 22 23  1  0
 23 24  1  0
 25 24  1  6
 25 26  1  0
 25 27  1  0
 28 27  1  6
 28 29  1  0
 29 30  1  6
 29 31  1  0
 29 13  1  0
 28 26  1  0
M  RAD  6   9   2  10   2  14   2  22   2  26   2  30   3
M  END
>  <docking_score>  (1) 
-4.0549999999999997

$$$$

     RDKit          3D

 31 32  0  0  0  0  0  0  0  0999 V2000
   15.8409   -1.3844   -1.3718 C   0  0  0  0  0  0  0  0  0  0  0  0
   16.6187   -2.4700   -2.0486 C   0  0  0  0  0  0  0  0  0  0  0  0
   16.1900   -3.8222   -1.5545 C   0  0  0  0  0  0  0  0  0  0  0  0
   18.1069   -2.2570   -1.8768 C   0  0  0  0  0  0  0  0  0  0  0  0
   18.6239   -3.3139   -0.9270 C   0  0  0  0  0  0  0  0  0  0  0  0
   18.9885   -4.5760   -1.6733 C   0  0  0  0  0  0  0  0  0  0  0  0
   20.0884   -4.2396   -2.6416 C   0  0  1  0  0  0  0  0  0  0  0  0
   21.3824   -4.8865   -2.2223 C   0  0  0  0  0  0  0  0  0  0  0  0
   19.7318   -4.4657   -4.0653 C   0  0  0  0  0  3  0  0  0  0  0  0
   20.8213   -4.9871   -4.9261 C   0  0  0  0  0  3  0  0  0  0  0  0
   21.3339   -3.9859   -5.9296 C   0  0  0  0  0  0  0  0  0  0  0  0
   20.3118   -3.5715   -6.9293 C   0  0  2  0  0  0  0  0  0  0  0  0
   19.0410   -3.0449   -6.3365 C   0  0  0  0  0  0  0  0  0  0  0  0
   20.0971   -4.5392   -8.0457 C   0  0  0  0  0  3  0  0  0  0  0  0
   18.9675   -5.4870   -7.7779 C   0  0  0  0  0  0  0  0  0  0  0  0
   17.7244   -4.6960   -7.4348 C   0  0  1  0  0  0  0  0  0  0  0  0
   17.1834   -4.1137   -8.7371 C   0  0  0  0  0  0  0  0  0  0  0  0
   16.6440   -5.6281   -6.8946 C   0  0  0  0  0  0  0  0  0  0  0  0
   16.4139   -5.4063   -5.4184 C   0  0  0  0  0  0  0  0  0  0  0  0
   15.0746   -4.7939   -5.1240 C   0  0  2  0  0  0  0  0  0  0  0  0
   13.9880   -5.8200   -4.9315 C   0  0  0  0  0  0  0  0  0  0  0  0
   14.6876   -3.7075   -6.0836 C   0  0  0  0  0  3  0  0  0  0  0  0
   14.1016   -2.5706   -5.2949 C   0  0  0  0  0  0  0  0  0  0  0  0
   14.8658   -1.2956   -5.6206 C   0  0  0  0  0  0  0  0  0  0  0  0
   16.2825   -1.7208   -5.9980 C   0  0  2  0  0  0  0  0  0  0  0  0
   17.0631   -2.1091   -4.7492 C   0  0  0  0  0  3  0  0  0  0  0  0
   17.1716   -0.5056   -6.1916 C   0  0  0  0  0  0  0  0  0  0  0  0
   18.0958   -1.0724   -5.1212 C   0  0  2  0  0  0  0  0  0  0  0  0
   19.3303   -1.6752   -5.7244 C   0  0  2  0  0  0  0  0  0  0  0  0
   19.8455   -0.7302   -6.7883 C   0  0  0  0  0  2  0  0  0  0  0  0
   20.2873   -1.8116   -4.7430 F   0  0  0  0  0  0  0  0  0  0  0  0
  1  2  1  0
  2  3  1  0
  2  4  1  0
  4  5  1  0
  5  6  1  0
  6  7  1  0
  7  8  1  1
  7  9  1  0
  9 10  1  0
 10 11  1  0
 12 11  1  1
 12 13  1  0
 12 14  1  0
 14 15  1  0
 15 16  1  0
 16 17  1  6
 16 18  1  0
 18 19  1  0
 19 20  1  0
 20 21  1  6
 20 22  1  0
 22 23  1  0
 23 24  1  0
 25 24  1  1
 25 26  1  0
 25 27  1  0
 28 27  1  6
 28 29  1  0
 29 30  1  6
 29 31  1  0
 29 13  1  0
 28 26  1  0
M  RAD  6   9   2  10   2  14   2  22   2  26   2  30   3
M  END
>  <docking_score>  (2) 
-2.379

$$$$

     RDKit          3D

 31 32  0  0  0  0  0  0  0  0999 V2000
    8.7395   13.8947   14.1756 C   0  0  0  0  0  0  0  0  0  0  0  0
    9.0050   14.5260   12.8442 C   0  0  0  0  0  0  0  0  0  0  0  0
   10.2958   15.2940   12.8647 C   0  0  0  0  0  0  0  0  0  0  0  0
    7.8429   15.3956   12.4165 C   0  0  0  0  0  0  0  0  0  0  0  0
    6.8022   15.3579   13.5129 C   0  0  0  0  0  0  0  0  0  0  0  0
    5.4103   15.2763   12.9309 C   0  0  0  0  0  0  0  0  0  0  0  0
    5.5385   14.9512   11.4685 C   0  0  1  0  0  0  0  0  0  0  0  0
    6.2191   13.6212   11.2770 C   0  0  0  0  0  0  0  0  0  0  0  0
    4.2756   15.1011   10.7019 C   0  0  0  0  0  3  0  0  0  0  0  0
    4.4060   15.7280    9.3640 C   0  0  0  0  0  3  0  0  0  0  0  0
    5.3105   14.9717    8.4250 C   0  0  0  0  0  0  0  0  0  0  0  0
    5.3058   15.5079    7.0363 C   0  0  2  0  0  0  0  0  0  0  0  0
    4.6340   14.6234    6.0313 C   0  0  0  0  0  0  0  0  0  0  0  0
    6.6132   16.0588    6.5715 C   0  0  0  0  0  3  0  0  0  0  0  0
    7.4307   15.0498    5.8235 C   0  0  0  0  0  0  0  0  0  0  0  0
    6.6006   14.4713    4.6989 C   0  0  1  0  0  0  0  0  0  0  0  0
    6.5351   15.5232    3.5957 C   0  0  0  0  0  0  0  0  0  0  0  0
    7.3050   13.2577    4.0998 C   0  0  0  0  0  0  0  0  0  0  0  0
    6.5767   11.9777    4.4352 C   0  0  0  0  0  0  0  0  0  0  0  0
    5.9331   11.3432    3.2358 C   0  0  2  0  0  0  0  0  0  0  0  0
    6.8495   10.3921    2.5105 C   0  0  0  0  0  0  0  0  0  0  0  0
    5.2707   12.3285    2.3187 C   0  0  0  0  0  3  0  0  0  0  0  0
    3.9421   11.7634    1.9022 C   0  0  0  0  0  0  0  0  0  0  0  0
    2.8488   12.7663    2.2406 C   0  0  0  0  0  0  0  0  0  0  0  0
    3.3453   13.5629    3.4445 C   0  0  2  0  0  0  0  0  0  0  0  0
    3.2428   12.7199    4.7088 C   0  0  0  0  0  3  0  0  0  0  0  0
    2.2576   14.4889    3.9581 C   0  0  0  0  0  0  0  0  0  0  0  0
    2.3818   13.8032    5.3130 C   0  0  2  0  0  0  0  0  0  0  0  0
    3.1294   14.6572    6.2944 C   0  0  2  0  0  0  0  0  0  0  0  0
    2.6138   16.0750    6.1748 C   0  0  0  0  0  2  0  0  0  0  0  0
    2.8826   14.1953    7.5685 F   0  0  0  0  0  0  0  0  0  0  0  0
  1  2  1  0
  2  3  1  0
  2  4  1  0
  4  5  1  0
  5  6  1  0
  6  7  1  0
  7  8  1  1
  7  9  1  0
  9 10  1  0
 10 11  1  0
 12 11  1  1
 12 13  1  0
 12 14  1  0
 14 15  1  0
 15 16  1  0
 16 17  1  6
 16 18  1  0
 18 19  1  0
 19 20  1  0
 20 21  1  6
 20 22  1  0
 22 23  1  0
 23 24  1  0
 25 24  1  6
 25 26  1  0
 25 27  1  0
 28 27  1  6
 28 29  1  0
 29 30  1  1
 29 31  1  0
 29 13  1  0
 28 26  1  0
M  RAD  6   9   2  10   2  14   2  22   2  26   2  30   3
M  END
>  <docking_score>  (3) 
-1.825

$$$$
