
     RDKit          3D

 14 14  0  0  0  0  0  0  0  0999 V2000
   17.7825   -1.8344   -3.5057 C   0  0  0  0  0  0  0  0  0  0  0  0
   18.2057   -1.7982   -4.9143 C   0  0  0  0  0  0  0  0  0  0  0  0
   17.3637   -1.2858   -5.7870 C   0  0  0  0  0  0  0  0  0  0  0  0
   16.0632   -0.7575   -5.4795 C   0  0  0  0  0  0  0  0  0  0  0  0
   14.9275   -1.3947   -5.5852 C   0  0  0  0  0  0  0  0  0  0  0  0
   13.6636   -0.7858   -5.2539 N   0  0  0  0  0  2  0  0  0  0  0  0
   13.8646    0.2359   -4.4070 O   0  0  0  0  0  0  0  0  0  0  0  0
   14.9348   -2.8005   -6.0650 C   0  0  0  0  0  0  0  0  0  0  0  0
   14.7486   -3.7936   -4.9694 C   0  0  0  0  0  0  0  0  0  0  0  0
   16.0395   -4.4053   -4.6310 N   0  0  0  0  0  0  0  0  0  0  0  0
   16.1548   -5.2679   -3.4953 C   0  0  0  0  0  0  0  0  0  0  0  0
   16.5112   -4.7874   -2.3037 C   0  0  0  0  0  0  0  0  0  0  0  0
   16.7895   -3.3725   -2.1395 C   0  0  0  0  0  0  0  0  0  0  0  0
   16.7456   -2.5784   -3.1877 C   0  0  0  0  0  0  0  0  0  0  0  0
  1  2  1  0
  2  3  2  3
  3  4  1  0
  4  5  2  3
  5  6  1  0
  6  7  1  0
  5  8  1  0
  8  9  1  0
  9 10  1  0
 10 11  1  0
 11 12  2  3
 12 13  1  0
 13 14  2  0
  1 14  2  0
M  CHG  1   6   1
M  RAD  1   6   3
M  END
>  <docking_score>  (1) 
-4.6310000000000002

$$$$

     RDKit          3D

 14 14  0  0  0  0  0  0  0  0999 V2000
   17.3818   -2.3699   -2.9670 C   0  0  0  0  0  0  0  0  0  0  0  0
   16.5908   -3.0792   -1.9492 C   0  0  0  0  0  0  0  0  0  0  0  0
   16.7104   -4.3891   -1.8933 C   0  0  0  0  0  0  0  0  0  0  0  0
   17.5501   -5.1866   -2.7440 C   0  0  0  0  0  0  0  0  0  0  0  0
   17.1749   -5.8182   -3.8244 C   0  0  0  0  0  0  0  0  0  0  0  0
   18.0874   -6.5989   -4.6219 N   0  0  0  0  0  2  0  0  0  0  0  0
   18.7702   -7.4404   -3.8301 O   0  0  0  0  0  0  0  0  0  0  0  0
   15.7545   -5.7311   -4.2506 C   0  0  0  0  0  0  0  0  0  0  0  0
   15.5432   -4.8005   -5.3954 C   0  0  0  0  0  0  0  0  0  0  0  0
   14.9768   -3.5369   -4.9082 N   0  0  0  0  0  0  0  0  0  0  0  0
   14.8394   -2.4189   -5.7905 C   0  0  0  0  0  0  0  0  0  0  0  0
   15.8009   -1.5002   -5.8868 C   0  0  0  0  0  0  0  0  0  0  0  0
   17.0097   -1.6211   -5.0927 C   0  0  0  0  0  0  0  0  0  0  0  0
   17.1235   -2.6113   -4.2337 C   0  0  0  0  0  0  0  0  0  0  0  0
  1  2  1  0
  2  3  2  3
  3  4  1  0
  4  5  2  3
  5  6  1  0
  6  7  1  0
  5  8  1  0
  8  9  1  0
  9 10  1  0
 10 11  1  0
 11 12  2  3
 12 13  1  0
 13 14  2  0
  1 14  2  0
M  CHG  1   6   1
M  RAD  1   6   3
M  END
>  <docking_score>  (2) 
-4.4550000000000001

$$$$

     RDKit          3D

 14 14  0  0  0  0  0  0  0  0999 V2000
   15.5520   -1.4028   -5.7973 C   0  0  0  0  0  0  0  0  0  0  0  0
   16.5207   -1.8771   -6.7979 C   0  0  0  0  0  0  0  0  0  0  0  0
   16.2566   -3.0151   -7.4050 C   0  0  0  0  0  0  0  0  0  0  0  0
   15.0996   -3.8350   -7.1726 C   0  0  0  0  0  0  0  0  0  0  0  0
   15.0377   -4.8755   -6.3847 C   0  0  0  0  0  0  0  0  0  0  0  0
   13.8308   -5.6441   -6.2097 N   0  0  0  0  0  2  0  0  0  0  0  0
   12.8643   -4.8570   -5.7121 O   0  0  0  0  0  0  0  0  0  0  0  0
   16.2555   -5.2852   -5.6392 C   0  0  0  0  0  0  0  0  0  0  0  0
   16.2204   -4.8945   -4.2014 C   0  0  0  0  0  0  0  0  0  0  0  0
   17.0675   -3.7146   -3.9882 N   0  0  0  0  0  0  0  0  0  0  0  0
   17.0682   -3.0445   -2.7241 C   0  0  0  0  0  0  0  0  0  0  0  0
   16.2507   -2.0167   -2.4934 C   0  0  0  0  0  0  0  0  0  0  0  0
   15.3417   -1.5591   -3.5281 C   0  0  0  0  0  0  0  0  0  0  0  0
   15.3726   -2.1273   -4.7143 C   0  0  0  0  0  0  0  0  0  0  0  0
  1  2  1  0
  2  3  2  3
  3  4  1  0
  4  5  2  3
  5  6  1  0
  6  7  1  0
  5  8  1  0
  8  9  1  0
  9 10  1  0
 10 11  1  0
 11 12  2  3
 12 13  1  0
 13 14  2  0
  1 14  2  0
M  CHG  1   6   1
M  RAD  1   6   3
M  END
>  <docking_score>  (3) 
-4.4340000000000002

$$$$
