
     RDKit          3D

 40 41  0  0  0  0  0  0  0  0999 V2000
   14.1381   -2.6912   -6.1192 C   0  0  0  0  0  0  0  0  0  0  0  0
   14.3756   -4.0742   -5.6062 C   0  0  1  0  0  0  0  0  0  0  0  0
   13.3130   -5.0579   -5.9863 C   0  0  0  0  0  0  0  0  0  0  0  0
   15.7576   -4.5119   -5.9614 C   0  0  0  0  0  0  0  0  0  0  0  0
   16.3483   -3.7774   -7.1341 C   0  0  0  0  0  0  0  0  0  0  0  0
   17.4144   -4.6323   -7.7765 C   0  0  2  0  0  0  0  0  0  0  0  0
   16.9988   -6.0674   -7.6394 C   0  0  1  0  0  0  0  0  0  0  0  0
   17.5819   -6.9718   -8.6697 C   0  0  0  0  0  0  0  0  0  0  0  0
   17.1504   -6.5371   -6.2329 C   0  0  0  0  0  3  0  0  0  0  0  0
   17.2557   -8.0384   -6.1032 C   0  0  0  0  0  0  0  0  0  0  0  0
   18.6711   -8.3492   -5.6612 C   0  0  0  0  0  0  0  0  0  0  0  0
   19.4853   -8.5795   -6.9336 C   0  0  2  0  0  0  0  0  0  0  0  0
   19.3216  -10.0121   -7.3951 C   0  0  0  0  0  2  0  0  0  0  0  0
   20.9139   -8.1848   -6.7331 C   0  0  0  0  0  0  0  0  0  0  0  0
   21.2728   -6.8649   -7.3220 C   0  0  1  0  0  0  0  0  0  0  0  0
   21.1168   -6.7695   -8.7370 N   0  0  0  0  0  1  0  0  0  0  0  0
   20.7961   -5.6818   -6.5530 C   0  0  0  0  0  3  0  0  0  0  0  0
   19.3115   -5.5484   -6.4690 C   0  0  0  0  0  0  0  0  0  0  0  0
   18.7913   -4.3549   -7.2478 C   0  0  1  0  0  0  0  0  0  0  0  0
   19.6478   -4.1013   -8.3207 O   0  0  0  0  0  0  0  0  0  0  0  0
   18.8184   -3.1282   -6.3607 C   0  0  1  0  0  0  0  0  0  0  0  0
   18.3906   -1.9069   -7.1084 C   0  0  0  0  0  0  0  0  0  0  0  0
   18.1082   -3.2796   -5.1951 O   0  0  0  0  0  0  0  0  0  0  0  0
   17.4776   -2.1761   -4.8600 O   0  0  0  0  0  0  0  0  0  0  0  0
   16.1176   -2.4071   -4.6001 C   0  0  0  0  0  0  0  0  0  0  0  0
   15.3460   -1.8418   -5.7930 C   0  0  2  0  0  0  0  0  0  0  0  0
   14.8315   -0.4846   -5.3652 C   0  0  0  0  0  3  0  0  0  0  0  0
   15.8720    0.4160   -5.1443 O   0  0  0  0  0  0  0  0  0  0  0  0
   15.5874    1.6239   -5.7688 C   0  0  0  0  0  3  0  0  0  0  0  0
   16.6886    2.2642   -6.2724 O   0  0  0  0  0  0  0  0  0  0  0  0
   16.9638    3.4829   -5.6755 C   0  0  0  0  0  0  0  0  0  0  0  0
   18.0814    4.2288   -6.3365 C   0  0  1  0  0  0  0  0  0  0  0  0
   17.9060    4.3456   -7.8327 C   0  0  0  0  0  2  0  0  0  0  0  0
   18.0440    5.6596   -5.7890 C   0  0  0  0  0  0  0  0  0  0  0  0
   18.5764    5.5532   -4.3541 C   0  0  0  0  0  0  0  0  0  0  0  0
   18.8736    6.9238   -3.7881 C   0  0  1  0  0  0  0  0  0  0  0  0
   17.6192    7.4263   -3.1082 C   0  0  0  0  0  2  0  0  0  0  0  0
   19.9913    6.7252   -2.7588 C   0  0  0  0  0  0  0  0  0  0  0  0
   20.4601    8.0937   -2.3975 C   0  0  0  0  0  0  0  0  0  0  0  0
   19.6217    8.9749   -1.8636 C   0  0  0  0  0  3  0  0  0  0  0  0
  1  2  1  0
  2  3  1  6
  2  4  1  0
  4  5  1  0
  6  5  1  1
  6  7  1  0
  7  8  1  6
  7  9  1  0
  9 10  1  0
 10 11  1  0
 11 12  1  0
 12 13  1  1
 12 14  1  0
 14 15  1  0
 15 16  1  6
 15 17  1  0
 17 18  1  0
 18 19  1  0
 19 20  1  6
 19 21  1  0
 21 22  1  6
 21 23  1  0
 23 24  1  0
 24 25  1  0
 25 26  1  0
 26 27  1  1
 27 28  1  0
 28 29  1  0
 29 30  1  0
 30 31  1  0
 31 32  1  0
 32 33  1  6
 32 34  1  0
 34 35  1  0
 35 36  1  0
 36 37  1  1
 36 38  1  0
 38 39  1  0
 39 40  2  0
 26  1  1  0
 19  6  1  0
M  RAD  8   9   2  13   3  16   2  17   2  27   2  29   2  33   3  37   3
M  CHG  1  16   1
M  RAD  1  40   2
M  END
>  <docking_score>  (1) 
0.049000000000000002

$$$$

     RDKit          3D

 40 41  0  0  0  0  0  0  0  0999 V2000
   14.0423   -1.9758   -6.0304 C   0  0  0  0  0  0  0  0  0  0  0  0
   14.0366   -3.4343   -5.7067 C   0  0  1  0  0  0  0  0  0  0  0  0
   13.1618   -4.2556   -6.6020 C   0  0  0  0  0  0  0  0  0  0  0  0
   15.4399   -3.9337   -5.6111 C   0  0  0  0  0  0  0  0  0  0  0  0
   16.4403   -3.0895   -6.3528 C   0  0  0  0  0  0  0  0  0  0  0  0
   17.6441   -3.9304   -6.7044 C   0  0  2  0  0  0  0  0  0  0  0  0
   17.1682   -5.3285   -6.9687 C   0  0  1  0  0  0  0  0  0  0  0  0
   18.0644   -6.1195   -7.8579 C   0  0  0  0  0  0  0  0  0  0  0  0
   16.7790   -6.0106   -5.7018 C   0  0  0  0  0  3  0  0  0  0  0  0
   16.7882   -7.5182   -5.7974 C   0  0  0  0  0  0  0  0  0  0  0  0
   17.9328   -8.0121   -4.9364 C   0  0  0  0  0  0  0  0  0  0  0  0
   19.1512   -8.1235   -5.8517 C   0  0  2  0  0  0  0  0  0  0  0  0
   19.1297   -9.4534   -6.5751 C   0  0  0  0  0  2  0  0  0  0  0  0
   20.4162   -7.8881   -5.0893 C   0  0  0  0  0  0  0  0  0  0  0  0
   21.0024   -6.5324   -5.2795 C   0  0  1  0  0  0  0  0  0  0  0  0
   21.3805   -6.2176   -6.6188 N   0  0  0  0  0  1  0  0  0  0  0  0
   20.3088   -5.4378   -4.5452 C   0  0  0  0  0  3  0  0  0  0  0  0
   18.9016   -5.1896   -4.9778 C   0  0  0  0  0  0  0  0  0  0  0  0
   18.7371   -3.8543   -5.6787 C   0  0  1  0  0  0  0  0  0  0  0  0
   19.9348   -3.5217   -6.3144 O   0  0  0  0  0  0  0  0  0  0  0  0
   18.4695   -2.7777   -4.6482 C   0  0  1  0  0  0  0  0  0  0  0  0
   18.3803   -1.4276   -5.2828 C   0  0  0  0  0  0  0  0  0  0  0  0
   17.3766   -3.0360   -3.8578 O   0  0  0  0  0  0  0  0  0  0  0  0
   16.6973   -1.9429   -3.5906 O   0  0  0  0  0  0  0  0  0  0  0  0
   15.3313   -2.0903   -3.8782 C   0  0  0  0  0  0  0  0  0  0  0  0
   15.0683   -1.2915   -5.1551 C   0  0  2  0  0  0  0  0  0  0  0  0
   14.4697    0.0278   -4.7185 C   0  0  0  0  0  3  0  0  0  0  0  0
   14.8715    1.0758   -5.5448 O   0  0  0  0  0  0  0  0  0  0  0  0
   16.2214    1.3381   -5.3473 C   0  0  0  0  0  3  0  0  0  0  0  0
   16.6122    2.5863   -5.7539 O   0  0  0  0  0  0  0  0  0  0  0  0
   17.8387    2.6204   -6.3956 C   0  0  0  0  0  0  0  0  0  0  0  0
   18.5629    3.9197   -6.2234 C   0  0  1  0  0  0  0  0  0  0  0  0
   19.3141    4.3429   -7.4642 C   0  0  0  0  0  2  0  0  0  0  0  0
   17.4961    4.9931   -5.9830 C   0  0  0  0  0  0  0  0  0  0  0  0
   17.9301    5.7079   -4.6967 C   0  0  0  0  0  0  0  0  0  0  0  0
   19.2346    6.4442   -4.9049 C   0  0  1  0  0  0  0  0  0  0  0  0
   19.1423    7.1878   -6.2189 C   0  0  0  0  0  2  0  0  0  0  0  0
   19.3534    7.4350   -3.7420 C   0  0  0  0  0  0  0  0  0  0  0  0
   19.5083    6.6045   -2.5135 C   0  0  0  0  0  0  0  0  0  0  0  0
   20.4598    5.6805   -2.4394 C   0  0  0  0  0  3  0  0  0  0  0  0
  1  2  1  0
  2  3  1  6
  2  4  1  0
  4  5  1  0
  6  5  1  1
  6  7  1  0
  7  8  1  1
  7  9  1  0
  9 10  1  0
 10 11  1  0
 11 12  1  0
 12 13  1  1
 12 14  1  0
 14 15  1  0
 15 16  1  6
 15 17  1  0
 17 18  1  0
 18 19  1  0
 19 20  1  6
 19 21  1  0
 21 22  1  6
 21 23  1  0
 23 24  1  0
 24 25  1  0
 25 26  1  0
 26 27  1  1
 27 28  1  0
 28 29  1  0
 29 30  1  0
 30 31  1  0
 31 32  1  0
 32 33  1  6
 32 34  1  0
 34 35  1  0
 35 36  1  0
 36 37  1  6
 36 38  1  0
 38 39  1  0
 39 40  2  0
 26  1  1  0
 19  6  1  0
M  RAD  8   9   2  13   3  16   2  17   2  27   2  29   2  33   3  37   3
M  CHG  1  16   1
M  RAD  1  40   2
M  END
>  <docking_score>  (2) 
0.49099999999999999

$$$$

     RDKit          3D

 40 41  0  0  0  0  0  0  0  0999 V2000
    4.5128   13.2189    6.8350 C   0  0  0  0  0  0  0  0  0  0  0  0
    5.8489   12.8017    7.3575 C   0  0  1  0  0  0  0  0  0  0  0  0
    7.0025   13.2567    6.5187 C   0  0  0  0  0  0  0  0  0  0  0  0
    5.9652   13.1770    8.7974 C   0  0  0  0  0  0  0  0  0  0  0  0
    5.0448   14.2917    9.2143 C   0  0  0  0  0  0  0  0  0  0  0  0
    5.6137   14.9846   10.4293 C   0  0  2  0  0  0  0  0  0  0  0  0
    7.1097   14.9505   10.3209 C   0  0  1  0  0  0  0  0  0  0  0  0
    7.8001   16.0371   11.0706 C   0  0  0  0  0  0  0  0  0  0  0  0
    7.6344   13.5790   10.5772 C   0  0  0  0  0  3  0  0  0  0  0  0
    9.0867   13.5533   10.9920 C   0  0  0  0  0  0  0  0  0  0  0  0
    9.1276   13.1242   12.4444 C   0  0  0  0  0  0  0  0  0  0  0  0
    9.0955   14.4039   13.2788 C   0  0  2  0  0  0  0  0  0  0  0  0
   10.4954   14.9650   13.4118 C   0  0  0  0  0  2  0  0  0  0  0  0
    8.4284   14.1666   14.5963 C   0  0  0  0  0  0  0  0  0  0  0  0
    7.0251   14.6598   14.6697 C   0  0  1  0  0  0  0  0  0  0  0  0
    6.8662   16.0658   14.4865 N   0  0  0  0  0  1  0  0  0  0  0  0
    6.0227   13.8137   13.9643 C   0  0  0  0  0  3  0  0  0  0  0  0
    6.2057   13.7309   12.4849 C   0  0  0  0  0  0  0  0  0  0  0  0
    5.0947   14.4284   11.7230 C   0  0  1  0  0  0  0  0  0  0  0  0
    4.5954   15.4751   12.5002 O   0  0  0  0  0  0  0  0  0  0  0  0
    3.9535   13.4580   11.5023 C   0  0  1  0  0  0  0  0  0  0  0  0
    2.7984   14.1219   10.8253 C   0  0  0  0  0  0  0  0  0  0  0  0
    4.3293   12.3107   10.8479 O   0  0  0  0  0  0  0  0  0  0  0  0
    3.4063   11.9041   10.0050 O   0  0  0  0  0  0  0  0  0  0  0  0
    3.9312   11.6702    8.7244 C   0  0  0  0  0  0  0  0  0  0  0  0
    3.4565   12.8262    7.8433 C   0  0  2  0  0  0  0  0  0  0  0  0
    2.2683   12.3086    7.0623 C   0  0  0  0  0  3  0  0  0  0  0  0
    2.4750   12.3996    5.6870 O   0  0  0  0  0  0  0  0  0  0  0  0
    3.7920   12.0734    5.3879 C   0  0  0  0  0  3  0  0  0  0  0  0
    3.9679   11.5644    4.1285 O   0  0  0  0  0  0  0  0  0  0  0  0
    3.9726   10.1811    4.0666 C   0  0  0  0  0  0  0  0  0  0  0  0
    5.2222    9.6180    3.4637 C   0  0  1  0  0  0  0  0  0  0  0  0
    6.4244   10.5118    3.6607 C   0  0  0  0  0  2  0  0  0  0  0  0
    5.5292    8.3176    4.2140 C   0  0  0  0  0  0  0  0  0  0  0  0
    4.3011    7.4260    3.9889 C   0  0  0  0  0  0  0  0  0  0  0  0
    4.6301    5.9769    4.2704 C   0  0  1  0  0  0  0  0  0  0  0  0
    5.8568    5.9437    5.1548 C   0  0  0  0  0  2  0  0  0  0  0  0
    3.4214    5.4045    5.0184 C   0  0  0  0  0  0  0  0  0  0  0  0
    2.6455    4.6310    4.0071 C   0  0  0  0  0  0  0  0  0  0  0  0
    2.2664    5.1999    2.8682 C   0  0  0  0  0  3  0  0  0  0  0  0
  1  2  1  0
  2  3  1  6
  2  4  1  0
  4  5  1  0
  6  5  1  6
  6  7  1  0
  7  8  1  1
  7  9  1  0
  9 10  1  0
 10 11  1  0
 11 12  1  0
 12 13  1  1
 12 14  1  0
 14 15  1  0
 15 16  1  6
 15 17  1  0
 17 18  1  0
 18 19  1  0
 19 20  1  1
 19 21  1  0
 21 22  1  6
 21 23  1  0
 23 24  1  0
 24 25  1  0
 25 26  1  0
 26 27  1  6
 27 28  1  0
 28 29  1  0
 29 30  1  0
 30 31  1  0
 31 32  1  0
 32 33  1  1
 32 34  1  0
 34 35  1  0
 35 36  1  0
 36 37  1  1
 36 38  1  0
 38 39  1  0
 39 40  2  0
 26  1  1  0
 19  6  1  0
M  RAD  8   9   2  13   3  16   2  17   2  27   2  29   2  33   3  37   3
M  CHG  1  16   1
M  RAD  1  40   2
M  END
>  <docking_score>  (3) 
0.79300000000000004

$$$$
