
     RDKit          3D

 24 25  0  0  0  0  0  0  0  0999 V2000
   16.8396   -7.9576   -5.6149 C   0  0  0  0  0  0  0  0  0  0  0  0
   17.9522   -7.3413   -4.7859 C   0  0  1  0  0  0  0  0  0  0  0  0
   19.1219   -8.2539   -4.8256 C   0  0  0  0  0  0  0  0  0  0  0  0
   20.3242   -7.7351   -5.5376 C   0  0  2  0  0  0  0  0  0  0  0  0
   21.3795   -8.6221   -5.2994 O   0  0  0  0  0  0  0  0  0  0  0  0
   20.6508   -6.3803   -4.8904 C   0  0  2  0  0  0  0  0  0  0  0  0
   20.4899   -6.5517   -3.5006 O   0  0  0  0  0  0  0  0  0  0  0  0
   19.5549   -5.4526   -5.3317 C   0  0  1  0  0  0  0  0  0  0  0  0
   19.7249   -5.0875   -6.6615 O   0  0  0  0  0  0  0  0  0  0  0  0
   18.1896   -5.9225   -5.0448 C   0  0  1  0  0  0  0  0  0  0  0  0
   17.2520   -5.2459   -5.9032 N   0  0  0  0  0  0  0  0  0  0  0  0
   16.0999   -4.7282   -5.2036 C   0  0  0  0  0  3  0  0  0  0  0  0
   16.2910   -3.4646   -4.5160 C   0  0  1  0  0  0  0  0  0  0  0  0
   16.1524   -3.3380   -3.0782 C   0  0  1  0  0  0  0  0  0  0  0  0
   16.9900   -4.2248   -2.3861 O   0  0  0  0  0  0  0  0  0  0  0  0
   16.3199   -1.9687   -2.5119 C   0  0  0  0  0  0  0  0  0  0  0  0
   15.1744   -1.1853   -2.5823 O   0  0  0  0  0  0  0  0  0  0  0  0
   15.1618   -0.5133   -3.7288 O   0  0  0  0  0  0  0  0  0  0  0  0
   14.6400   -1.3469   -4.7130 C   0  0  1  0  0  0  0  0  0  0  0  0
   13.4261   -0.8438   -5.1772 O   0  0  0  0  0  0  0  0  0  0  0  0
   15.6627   -1.4365   -5.8319 C   0  0  2  0  0  0  0  0  0  0  0  0
   15.0342   -1.9536   -6.9642 O   0  0  0  0  0  0  0  0  0  0  0  0
   16.7637   -2.3639   -5.3504 C   0  0  1  0  0  0  0  0  0  0  0  0
   17.8302   -1.6500   -4.8330 O   0  0  0  0  0  0  0  0  0  0  0  0
  2  1  1  6
  2  3  1  0
  3  4  1  0
  4  5  1  1
  4  6  1  0
  6  7  1  1
  6  8  1  0
  8  9  1  6
  8 10  1  0
 10 11  1  6
 11 12  1  0
 13 12  1  1
 13 14  1  0
 14 15  1  1
 14 16  1  0
 16 17  1  0
 17 18  1  0
 18 19  1  0
 19 20  1  6
 19 21  1  0
 21 22  1  6
 21 23  1  0
 23 24  1  1
 10  2  1  0
 23 13  1  0
M  RAD  1  12   2
M  END
>  <docking_score>  (1) 
-4.508

$$$$

     RDKit          3D

 24 25  0  0  0  0  0  0  0  0999 V2000
    4.5607   13.7336    4.6188 C   0  0  0  0  0  0  0  0  0  0  0  0
    5.4427   13.6039    3.3899 C   0  0  1  0  0  0  0  0  0  0  0  0
    6.3710   14.7615    3.3595 C   0  0  0  0  0  0  0  0  0  0  0  0
    7.8128   14.4409    3.5597 C   0  0  2  0  0  0  0  0  0  0  0  0
    8.5504   15.5999    3.2955 O   0  0  0  0  0  0  0  0  0  0  0  0
    8.1614   13.3735    2.5107 C   0  0  2  0  0  0  0  0  0  0  0  0
    7.5337   13.7702    1.3126 O   0  0  0  0  0  0  0  0  0  0  0  0
    7.4588   12.1252    2.9628 C   0  0  1  0  0  0  0  0  0  0  0  0
    8.1118   11.5597    4.0512 O   0  0  0  0  0  0  0  0  0  0  0  0
    6.0113   12.2728    3.1867 C   0  0  1  0  0  0  0  0  0  0  0  0
    5.5428   11.2198    4.0500 N   0  0  0  0  0  0  0  0  0  0  0  0
    5.0113   10.0829    3.3362 C   0  0  0  0  0  3  0  0  0  0  0  0
    4.3430    9.0817    4.1467 C   0  0  1  0  0  0  0  0  0  0  0  0
    5.0692    8.1957    5.0356 C   0  0  1  0  0  0  0  0  0  0  0  0
    5.8564    8.9007    5.9577 O   0  0  0  0  0  0  0  0  0  0  0  0
    4.2610    7.1767    5.7651 C   0  0  0  0  0  0  0  0  0  0  0  0
    3.9914    6.0336    5.0224 O   0  0  0  0  0  0  0  0  0  0  0  0
    2.8541    6.1928    4.3534 O   0  0  0  0  0  0  0  0  0  0  0  0
    3.1372    6.8786    3.1763 C   0  0  1  0  0  0  0  0  0  0  0  0
    2.8937    6.0632    2.0726 O   0  0  0  0  0  0  0  0  0  0  0  0
    2.2656    8.1217    3.1454 C   0  0  2  0  0  0  0  0  0  0  0  0
    2.2584    8.6236    1.8443 O   0  0  0  0  0  0  0  0  0  0  0  0
    2.8841    9.1185    4.1088 C   0  0  1  0  0  0  0  0  0  0  0  0
    2.2625    9.0737    5.3442 O   0  0  0  0  0  0  0  0  0  0  0  0
  2  1  1  1
  2  3  1  0
  3  4  1  0
  4  5  1  6
  4  6  1  0
  6  7  1  6
  6  8  1  0
  8  9  1  1
  8 10  1  0
 10 11  1  1
 11 12  1  0
 13 12  1  1
 13 14  1  0
 14 15  1  1
 14 16  1  0
 16 17  1  0
 17 18  1  0
 18 19  1  0
 19 20  1  6
 19 21  1  0
 21 22  1  6
 21 23  1  0
 23 24  1  1
 10  2  1  0
 23 13  1  0
M  RAD  1  12   2
M  END
>  <docking_score>  (2) 
-4.3929999999999998

$$$$

     RDKit          3D

 24 25  0  0  0  0  0  0  0  0999 V2000
   17.5092   -4.5742   -8.0816 C   0  0  0  0  0  0  0  0  0  0  0  0
   16.9199   -5.3911   -6.9457 C   0  0  1  0  0  0  0  0  0  0  0  0
   16.9202   -6.8189   -7.3507 C   0  0  0  0  0  0  0  0  0  0  0  0
   17.8322   -7.7106   -6.5794 C   0  0  2  0  0  0  0  0  0  0  0  0
   17.5530   -9.0311   -6.9476 O   0  0  0  0  0  0  0  0  0  0  0  0
   17.4687   -7.5141   -5.0994 C   0  0  2  0  0  0  0  0  0  0  0  0
   16.0612   -7.4717   -5.0355 O   0  0  0  0  0  0  0  0  0  0  0  0
   17.9495   -6.1346   -4.7500 C   0  0  1  0  0  0  0  0  0  0  0  0
   19.3330   -6.1132   -4.6228 O   0  0  0  0  0  0  0  0  0  0  0  0
   17.4457   -5.0611   -5.6224 C   0  0  1  0  0  0  0  0  0  0  0  0
   18.3075   -3.9115   -5.5261 N   0  0  0  0  0  0  0  0  0  0  0  0
   17.9599   -3.0195   -4.4453 C   0  0  0  0  0  3  0  0  0  0  0  0
   19.0248   -2.7148   -3.5077 C   0  0  1  0  0  0  0  0  0  0  0  0
   18.7833   -2.5617   -2.0862 C   0  0  1  0  0  0  0  0  0  0  0  0
   18.1622   -3.6900   -1.5309 O   0  0  0  0  0  0  0  0  0  0  0  0
   19.9597   -2.1922   -1.2476 C   0  0  0  0  0  0  0  0  0  0  0  0
   20.2389   -0.8310   -1.2365 O   0  0  0  0  0  0  0  0  0  0  0  0
   21.0793   -0.5387   -2.2237 O   0  0  0  0  0  0  0  0  0  0  0  0
   20.3363   -0.3664   -3.3874 C   0  0  1  0  0  0  0  0  0  0  0  0
   20.4200    0.9551   -3.8218 O   0  0  0  0  0  0  0  0  0  0  0  0
   20.8836   -1.3245   -4.4306 C   0  0  2  0  0  0  0  0  0  0  0  0
   20.4153   -0.9283   -5.6829 O   0  0  0  0  0  0  0  0  0  0  0  0
   20.3714   -2.7076   -4.0716 C   0  0  1  0  0  0  0  0  0  0  0  0
   21.3141   -3.4203   -3.3518 O   0  0  0  0  0  0  0  0  0  0  0  0
  2  1  1  6
  2  3  1  0
  3  4  1  0
  4  5  1  6
  4  6  1  0
  6  7  1  6
  6  8  1  0
  8  9  1  6
  8 10  1  0
 10 11  1  6
 11 12  1  0
 13 12  1  1
 13 14  1  0
 14 15  1  1
 14 16  1  0
 16 17  1  0
 17 18  1  0
 18 19  1  0
 19 20  1  6
 19 21  1  0
 21 22  1  6
 21 23  1  0
 23 24  1  1
 10  2  1  0
 23 13  1  0
M  RAD  1  12   2
M  END
>  <docking_score>  (3) 
-4.0739999999999998

$$$$
