
     RDKit          3D

 47 49  0  0  0  0  0  0  0  0999 V2000
    4.1685   12.9157    1.2133 C   0  0  0  0  0  0  0  0  0  0  0  0
    4.7263   11.8003    2.0709 C   0  0  1  0  0  0  0  0  0  0  0  0
    6.0919   12.2325    2.5868 C   0  0  0  0  0  0  0  0  0  0  0  0
    5.9405   12.7838    4.0125 C   0  0  2  0  0  0  0  0  0  0  0  0
    5.7180   11.7184    4.9007 O   0  0  0  0  0  0  0  0  0  0  0  0
    4.7121   13.6618    4.0083 C   0  0  2  0  0  0  0  0  0  0  0  0
    4.7236   14.5238    5.1124 O   0  0  0  0  0  0  0  0  0  0  0  0
    3.4970   12.7970    3.9507 C   0  0  1  0  0  0  0  0  0  0  0  0
    2.4312   13.4612    3.3369 O   0  0  0  0  0  0  0  0  0  0  0  0
    3.8002   11.5039    3.2560 C   0  0  1  0  0  0  0  0  0  0  0  0
    2.6116   10.8947    2.7488 N   0  0  0  0  0  0  0  0  0  0  0  0
    2.9349    9.7152    1.9710 C   0  0  0  0  0  3  0  0  0  0  0  0
    2.3839    8.4443    2.5698 C   0  0  0  0  0  0  0  0  0  0  0  0
    3.0746    8.1691    3.7291 O   0  0  0  0  0  0  0  0  0  0  0  0
    3.9786    9.0685    4.1315 C   0  0  0  0  0  0  0  0  0  0  0  0
    3.9591    9.6392    5.3455 O   0  0  0  0  0  0  0  0  0  0  0  0
    2.9737    9.2905    6.2093 C   0  0  0  0  0  0  0  0  0  0  0  0
    3.1514    9.6743    7.4948 O   0  0  0  0  0  0  0  0  0  0  0  0
    3.8533   10.7578    7.6039 O   0  0  0  0  0  0  0  0  0  0  0  0
    4.7085   10.6474    8.6806 C   0  0  2  0  0  0  0  0  0  0  0  0
    4.0650   10.2751    9.8471 O   0  0  0  0  0  0  0  0  0  0  0  0
    5.3940   11.9857    8.8593 C   0  0  2  0  0  0  0  0  0  0  0  0
    5.9937   12.4271    7.6792 O   0  0  0  0  0  0  0  0  0  0  0  0
    6.3682   11.9601   10.0123 C   0  0  0  0  0  3  0  0  0  0  0  0
    6.0780   13.1496   10.8828 C   0  0  1  0  0  0  0  0  0  0  0  0
    5.3013   12.7611   12.1289 C   0  0  0  0  0  3  0  0  0  0  0  0
    4.2256   13.6524   12.2059 O   0  0  0  0  0  0  0  0  0  0  0  0
    4.4370   14.6465   13.0629 N   0  0  0  0  0  0  0  0  0  0  0  0
    6.1145   14.9954   13.3788 S   0  0  0  0  0  0  0  0  0  0  0  0
    6.8263   16.0738   12.2900 O   0  0  0  0  0  0  0  0  0  0  0  0
    6.8233   15.4724   11.0168 C   0  0  2  0  0  0  0  0  0  0  0  0
    5.5879   15.6419   10.3930 O   0  0  0  0  0  0  0  0  0  0  0  0
    7.2101   14.0467   11.1701 C   0  0  2  0  0  0  0  0  0  0  0  0
    8.5567   13.6572   10.6887 C   0  0  2  0  0  0  0  0  0  0  0  0
    9.0734   12.5727   11.3979 F   0  0  0  0  0  0  0  0  0  0  0  0
    9.4678   14.8735   10.9432 C   0  0  0  0  0  0  0  0  0  0  0  0
   10.5001   14.4933   11.9845 C   0  0  1  0  0  0  0  0  0  0  0  0
    9.7498   14.5540   13.3212 C   0  0  2  0  0  0  0  0  0  0  0  0
    9.6290   15.9426   13.8495 C   0  0  0  0  0  2  0  0  0  0  0  0
   10.2692   13.5465   14.3025 C   0  0  0  0  0  0  0  0  0  0  0  0
   11.5349   13.8178   14.7784 O   0  0  0  0  0  0  0  0  0  0  0  0
   12.4304   12.9126   14.1817 C   0  0  0  0  0  0  0  0  0  0  0  0
   12.8900   13.4553   12.9982 O   0  0  0  0  0  0  0  0  0  0  0  0
   12.3267   12.7432   11.9415 C   0  0  0  0  0  3  0  0  0  0  0  0
   10.8904   13.0440   11.7149 C   0  0  2  0  0  0  0  0  0  0  0  0
   10.5506   12.7475   10.4071 O   0  0  0  0  0  0  0  0  0  0  0  0
   10.0742   12.2149   12.5041 F   0  0  0  0  0  0  0  0  0  0  0  0
  2  1  1  1
  2  3  1  0
  3  4  1  0
  4  5  1  1
  4  6  1  0
  6  7  1  1
  6  8  1  0
  8  9  1  6
  8 10  1  0
 10 11  1  6
 11 12  1  0
 12 13  1  0
 13 14  1  0
 14 15  1  0
 15 16  1  0
 16 17  1  0
 17 18  1  0
 18 19  1  0
 19 20  1  0
 20 21  1  1
 20 22  1  0
 22 23  1  6
 22 24  1  0
 25 24  1  1
 25 26  1  0
 26 27  1  0
 27 28  1  0
 28 29  1  0
 29 30  1  0
 30 31  1  0
 31 32  1  1
 31 33  1  0
 33 34  1  6
 34 35  1  1
 34 36  1  0
 37 36  1  6
 37 38  1  0
 38 39  1  1
 38 40  1  0
 40 41  1  0
 41 42  1  0
 42 43  1  0
 43 44  1  0
 44 45  1  0
 45 46  1  6
 45 47  1  0
 10  2  1  0
 33 25  1  0
 45 37  1  0
M  RAD  5  12   2  24   2  26   2  39   3  44   2
M  END
>  <docking_score>  (1) 
0.98799999999999999

$$$$
