
     RDKit          3D

 15 16  0  0  0  0  0  0  0  0999 V2000
   17.3416   -5.0405   -2.4951 C   0  0  0  0  0  0  0  0  0  0  0  0
   16.1930   -4.2459   -3.0587 C   0  0  1  0  0  0  0  0  0  0  0  0
   16.4101   -2.8041   -2.8484 C   0  0  0  0  0  0  0  0  0  0  0  0
   15.8616   -1.8593   -3.8367 C   0  0  2  0  0  0  0  0  0  0  0  0
   14.8260   -1.0655   -3.3277 O   0  0  0  0  0  0  0  0  0  0  0  0
   15.4086   -2.4268   -5.1346 C   0  0  2  0  0  0  0  0  0  0  0  0
   14.4988   -1.6224   -5.7918 O   0  0  0  0  0  0  0  0  0  0  0  0
   14.7575   -3.7953   -4.9599 C   0  0  1  0  0  0  0  0  0  0  0  0
   14.3507   -4.2706   -6.1956 O   0  0  0  0  0  0  0  0  0  0  0  0
   15.8846   -4.6841   -4.4531 C   0  0  1  0  0  0  0  0  0  0  0  0
   16.9933   -4.5415   -5.3717 N   0  0  0  0  0  0  0  0  0  0  0  0
   16.9915   -5.6948   -6.2324 C   0  0  0  0  0  3  0  0  0  0  0  0
   17.0840   -6.9996   -5.4947 C   0  0  1  0  0  0  0  0  0  0  0  0
   17.9974   -8.0015   -6.1912 C   0  0  0  0  0  0  0  0  0  0  0  0
   18.2746   -7.3649   -4.8757 O   0  0  0  0  0  0  0  0  0  0  0  0
  2  1  1  6
  2  3  1  0
  3  4  1  0
  4  5  1  1
  4  6  1  0
  6  7  1  1
  6  8  1  0
  8  9  1  6
  8 10  1  0
 10 11  1  6
 11 12  1  0
 13 12  1  6
 13 14  1  0
 13 15  1  0
 10  2  1  0
 15 14  1  0
M  RAD  1  12   2
M  END
>  <docking_score>  (1) 
-3.9489999999999998

$$$$

     RDKit          3D

 15 16  0  0  0  0  0  0  0  0999 V2000
   15.5115   -1.5383   -3.1565 C   0  0  0  0  0  0  0  0  0  0  0  0
   16.6703   -2.4565   -3.4435 C   0  0  1  0  0  0  0  0  0  0  0  0
   17.1056   -3.1390   -2.2127 C   0  0  0  0  0  0  0  0  0  0  0  0
   17.6783   -4.4917   -2.3241 C   0  0  2  0  0  0  0  0  0  0  0  0
   19.0400   -4.5442   -2.0006 O   0  0  0  0  0  0  0  0  0  0  0  0
   17.4866   -5.2019   -3.6166 C   0  0  2  0  0  0  0  0  0  0  0  0
   18.4138   -6.2027   -3.8299 O   0  0  0  0  0  0  0  0  0  0  0  0
   17.5685   -4.2498   -4.8057 C   0  0  1  0  0  0  0  0  0  0  0  0
   17.3900   -4.9645   -5.9785 O   0  0  0  0  0  0  0  0  0  0  0  0
   16.3756   -3.3218   -4.6250 C   0  0  1  0  0  0  0  0  0  0  0  0
   15.2021   -4.1529   -4.4653 N   0  0  0  0  0  0  0  0  0  0  0  0
   14.2614   -3.7718   -5.4854 C   0  0  0  0  0  3  0  0  0  0  0  0
   13.5439   -4.9336   -6.1105 C   0  0  1  0  0  0  0  0  0  0  0  0
   14.0211   -5.2206   -7.5293 C   0  0  0  0  0  0  0  0  0  0  0  0
   14.2271   -6.1186   -6.3615 O   0  0  0  0  0  0  0  0  0  0  0  0
  2  1  1  1
  2  3  1  0
  3  4  1  0
  4  5  1  6
  4  6  1  0
  6  7  1  6
  6  8  1  0
  8  9  1  6
  8 10  1  0
 10 11  1  1
 11 12  1  0
 13 12  1  1
 13 14  1  0
 13 15  1  0
 10  2  1  0
 15 14  1  0
M  RAD  1  12   2
M  END
>  <docking_score>  (2) 
-3.9039999999999999

$$$$

     RDKit          3D

 15 16  0  0  0  0  0  0  0  0999 V2000
   14.9238   -1.3091   -5.1415 C   0  0  0  0  0  0  0  0  0  0  0  0
   14.8850   -2.7496   -4.7036 C   0  0  1  0  0  0  0  0  0  0  0  0
   14.6752   -3.6358   -5.8615 C   0  0  0  0  0  0  0  0  0  0  0  0
   15.2621   -4.9866   -5.8281 C   0  0  2  0  0  0  0  0  0  0  0  0
   14.3028   -6.0050   -5.7616 O   0  0  0  0  0  0  0  0  0  0  0  0
   16.2860   -5.2525   -4.7827 C   0  0  2  0  0  0  0  0  0  0  0  0
   16.4320   -6.5948   -4.4935 O   0  0  0  0  0  0  0  0  0  0  0  0
   15.9588   -4.5415   -3.4733 C   0  0  1  0  0  0  0  0  0  0  0  0
   16.9390   -4.8293   -2.5380 O   0  0  0  0  0  0  0  0  0  0  0  0
   16.0472   -3.0617   -3.8185 C   0  0  1  0  0  0  0  0  0  0  0  0
   17.3346   -2.8394   -4.4404 N   0  0  0  0  0  0  0  0  0  0  0  0
   18.0537   -1.9011   -3.6200 C   0  0  0  0  0  3  0  0  0  0  0  0
   19.5009   -2.2525   -3.4265 C   0  0  1  0  0  0  0  0  0  0  0  0
   19.8386   -2.5592   -1.9722 C   0  0  0  0  0  0  0  0  0  0  0  0
   19.8605   -3.5507   -3.0809 O   0  0  0  0  0  0  0  0  0  0  0  0
  2  1  1  6
  2  3  1  0
  3  4  1  0
  4  5  1  1
  4  6  1  0
  6  7  1  1
  6  8  1  0
  8  9  1  1
  8 10  1  0
 10 11  1  6
 11 12  1  0
 13 12  1  1
 13 14  1  0
 13 15  1  0
 10  2  1  0
 15 14  1  0
M  RAD  1  12   2
M  END
>  <docking_score>  (3) 
-3.6850000000000001

$$$$
