
     RDKit          3D

 36 35  0  0  0  0  0  0  0  0999 V2000
    4.2402    6.7538    3.9923 C   0  0  0  0  0  0  0  0  0  0  0  0
    4.4952    7.4967    2.8581 O   0  0  0  0  0  0  0  0  0  0  0  0
    3.6802    8.5630    2.8132 C   0  0  0  0  0  3  0  0  0  0  0  0
    3.9689    9.6667    3.5556 O   0  0  0  0  0  0  0  0  0  0  0  0
    2.7456   10.1599    4.0488 C   0  0  2  0  0  0  0  0  0  0  0  0
    2.5746   11.4954    3.2637 C   0  0  0  0  0  0  0  0  0  0  0  0
    2.7443   10.5450    5.5011 C   0  0  0  0  0  3  0  0  0  0  0  0
    3.8659   11.2925    6.1216 C   0  0  1  0  0  0  0  0  0  0  0  0
    4.1903   12.5397    5.2670 C   0  0  0  0  0  3  0  0  0  0  0  0
    5.7424   12.6686    5.3204 C   0  0  0  0  0  0  0  0  0  0  0  0
    5.9241   14.1006    5.6159 C   0  0  2  0  0  0  0  0  0  0  0  0
    6.6583   14.6884    4.3365 C   0  0  0  0  0  0  0  0  0  0  0  0
    5.9633   14.4549    3.1932 O   0  0  0  0  0  0  0  0  0  0  0  0
    6.9878   14.3472    6.7373 C   0  0  0  0  0  0  0  0  0  0  0  0
    6.3016   15.0485    7.7706 O   0  0  0  0  0  0  0  0  0  0  0  0
    7.3731   15.1367    8.8102 B   0  0  0  0  0  0  0  0  0  0  0  0
    8.6346   16.0192    8.5405 C   0  0  0  0  0  2  0  0  0  0  0  0
    7.2056   14.2455   10.1071 C   0  0  1  0  0  0  0  0  0  0  0  0
    7.7040   14.7727   11.3900 C   0  0  0  0  0  0  0  0  0  0  0  0
    8.5135   13.9943   12.1578 O   0  0  0  0  0  0  0  0  0  0  0  0
    9.8217   14.4243   12.1262 C   0  0  0  0  0  0  0  0  0  0  0  0
   10.4793   13.9574   11.0231 O   0  0  0  0  0  0  0  0  0  0  0  0
    5.8188   13.7853   10.2098 N   0  0  0  0  0  0  0  0  0  0  0  0
    4.9018   14.9316   10.0852 C   0  0  0  0  0  3  0  0  0  0  0  0
    5.6931   16.0538   10.4059 O   0  0  0  0  0  0  0  0  0  0  0  0
    3.6807   11.6608    7.5358 C   0  0  0  0  0  3  0  0  0  0  0  0
    4.4184   11.0054    8.4553 O   0  0  0  0  0  0  0  0  0  0  0  0
    3.6686   10.8342    9.6344 C   0  0  0  0  0  0  0  0  0  0  0  0
    4.5841   10.4614   10.7426 C   0  0  0  0  0  0  0  0  0  0  0  0
    3.9917   10.1275   12.0437 C   0  0  0  0  0  3  0  0  0  0  0  0
    4.8671   10.4850   13.0311 O   0  0  0  0  0  0  0  0  0  0  0  0
    4.2321   10.1490   14.2627 C   0  0  0  0  0  3  0  0  0  0  0  0
    3.3391   11.3076   14.6129 C   0  0  0  0  0  3  0  0  0  0  0  0
    2.2624   10.8350   15.3870 O   0  0  0  0  0  0  0  0  0  0  0  0
    2.2580   11.0359   16.7454 C   0  0  0  0  0  0  0  0  0  0  0  0
    2.8369   10.2557   17.5229 O   0  0  0  0  0  0  0  0  0  0  0  0
  1  2  1  0
  2  3  1  0
  3  4  1  0
  4  5  1  0
  5  6  1  6
  5  7  1  0
  8  7  1  6
  8  9  1  0
  9 10  1  0
 11 10  1  6
 11 12  1  0
 12 13  1  0
 11 14  1  0
 14 15  1  0
 15 16  1  0
 16 17  1  0
 16 18  1  0
 18 19  1  1
 19 20  1  0
 20 21  1  0
 21 22  1  0
 18 23  1  0
 23 24  1  0
 24 25  1  0
  8 26  1  0
 26 27  1  0
 27 28  1  0
 28 29  1  0
 29 30  1  0
 30 31  1  0
 31 32  1  0
 32 33  1  0
 33 34  1  0
 34 35  1  0
 35 36  2  0
M  RAD  8   3   2   7   2   9   2  17   3  24   2  26   2  30   2  32   2
M  RAD  1  33   2
M  END
>  <docking_score>  (1) 
-1.75

$$$$
