
     RDKit          3D

  5  5  0  0  0  0  0  0  0  0999 V2000
  136.4784  120.3119  139.6275 N   0  0  0  0  0  0  0  0  0  0  0  0
  136.0055  120.3096  138.2310 C   0  0  0  0  0  0  0  0  0  0  0  0
  135.6683  118.8463  138.1008 C   0  0  0  0  0  0  0  0  0  0  0  0
  136.4562  118.2296  138.9709 C   0  0  0  0  0  0  0  0  0  0  0  0
  137.2455  119.1670  139.6246 O   0  0  0  0  0  0  0  0  0  0  0  0
  1  2  1  0
  2  3  1  0
  3  4  2  0
  4  5  1  0
  5  1  1  0
M  END
>  <docking_score>  (1) 
-2.6019999999999999

$$$$

     RDKit          3D

  5  5  0  0  0  0  0  0  0  0999 V2000
  137.0016  118.8386  139.5304 N   0  0  0  0  0  0  0  0  0  0  0  0
  135.9621  118.6589  138.5003 C   0  0  0  0  0  0  0  0  0  0  0  0
  136.0811  119.9950  137.8127 C   0  0  0  0  0  0  0  0  0  0  0  0
  136.5464  120.8220  138.7388 C   0  0  0  0  0  0  0  0  0  0  0  0
  136.7263  120.1289  139.9289 O   0  0  0  0  0  0  0  0  0  0  0  0
  1  2  1  0
  2  3  1  0
  3  4  2  0
  4  5  1  0
  5  1  1  0
M  END
>  <docking_score>  (2) 
-2.5750000000000002

$$$$

     RDKit          3D

  5  5  0  0  0  0  0  0  0  0999 V2000
  137.0827  121.8881  140.3300 N   0  0  0  0  0  0  0  0  0  0  0  0
  137.2074  120.6481  139.5420 C   0  0  0  0  0  0  0  0  0  0  0  0
  135.9532  120.7699  138.7148 C   0  0  0  0  0  0  0  0  0  0  0  0
  135.1237  121.5004  139.4472 C   0  0  0  0  0  0  0  0  0  0  0  0
  135.7415  121.8413  140.6435 O   0  0  0  0  0  0  0  0  0  0  0  0
  1  2  1  0
  2  3  1  0
  3  4  2  0
  4  5  1  0
  5  1  1  0
M  END
>  <docking_score>  (3) 
-2.5259999999999998

$$$$
