
     RDKit          3D

 14 16  0  0  0  0  0  0  0  0999 V2000
   18.8691   -1.1817   -1.9198 C   0  0  0  0  0  0  0  0  0  0  0  0
   20.1635   -1.3227   -1.1752 O   0  0  0  0  0  0  0  0  0  0  0  0
   20.7795   -2.6781   -0.9920 C   0  0  0  0  0  0  0  0  0  0  0  0
   20.1011   -3.8923   -1.5534 C   0  0  0  0  0  0  0  0  0  0  0  0
   18.8066   -3.7513   -2.2981 C   0  0  0  0  0  0  0  0  0  0  0  0
   18.4368   -5.1478   -2.7017 C   0  0  0  0  0  0  0  0  0  0  0  0
   17.2977   -5.7674   -3.4558 C   0  0  0  0  0  0  0  0  0  0  0  0
   16.0567   -5.2472   -4.1186 C   0  0  0  0  0  0  0  0  0  0  0  0
   15.2402   -6.3384   -4.7451 C   0  0  0  0  0  0  0  0  0  0  0  0
   13.9730   -6.0027   -5.4743 O   0  0  0  0  0  0  0  0  0  0  0  0
   15.4407   -3.8919   -4.3018 C   0  0  0  0  0  0  0  0  0  0  0  0
   15.8106   -2.4954   -3.8981 C   0  0  0  0  0  0  0  0  0  0  0  0
   16.9497   -1.8757   -3.1440 C   0  0  0  0  0  0  0  0  0  0  0  0
   18.1907   -2.3960   -2.4813 C   0  0  0  0  0  0  0  0  0  0  0  0
  1  2  1  0
  2  3  1  0
  3  4  2  0
  4  5  1  0
  5  6  2  0
  6  7  1  0
  7  8  2  3
  8  9  1  0
  9 10  2  0
  8 11  1  0
 11 12  2  3
 12 13  1  0
 13 14  2  3
 14  1  1  0
  6  1  1  0
 14  5  1  0
M  END
>  <docking_score>  (1) 
-4.7469999999999999

$$$$

     RDKit          3D

 14 16  0  0  0  0  0  0  0  0999 V2000
   18.5037   -1.1805   -2.0718 C   0  0  0  0  0  0  0  0  0  0  0  0
   19.7577   -1.1292   -1.2503 O   0  0  0  0  0  0  0  0  0  0  0  0
   20.5178   -2.3898   -0.9625 C   0  0  0  0  0  0  0  0  0  0  0  0
   20.0241   -3.7018   -1.4962 C   0  0  0  0  0  0  0  0  0  0  0  0
   18.7701   -3.7532   -2.3177 C   0  0  0  0  0  0  0  0  0  0  0  0
   18.5942   -5.2012   -2.6675 C   0  0  0  0  0  0  0  0  0  0  0  0
   17.5851   -5.9882   -3.4500 C   0  0  0  0  0  0  0  0  0  0  0  0
   16.3340   -5.6535   -4.2068 C   0  0  0  0  0  0  0  0  0  0  0  0
   15.6928   -6.8631   -4.8195 C   0  0  0  0  0  0  0  0  0  0  0  0
   16.5245   -7.8414   -5.5949 O   0  0  0  0  0  0  0  0  0  0  0  0
   15.5738   -4.3928   -4.4946 C   0  0  0  0  0  0  0  0  0  0  0  0
   15.7498   -2.9448   -4.1448 C   0  0  0  0  0  0  0  0  0  0  0  0
   16.7589   -2.1577   -3.3623 C   0  0  0  0  0  0  0  0  0  0  0  0
   18.0099   -2.4925   -2.6055 C   0  0  0  0  0  0  0  0  0  0  0  0
  1  2  1  0
  2  3  1  0
  3  4  2  0
  4  5  1  0
  5  6  2  0
  6  7  1  0
  7  8  2  3
  8  9  1  0
  9 10  2  0
  8 11  1  0
 11 12  2  3
 12 13  1  0
 13 14  2  3
 14  1  1  0
  6  1  1  0
 14  5  1  0
M  END
>  <docking_score>  (2) 
-4.5279999999999996

$$$$

     RDKit          3D

 14 16  0  0  0  0  0  0  0  0999 V2000
   17.2012   -7.4114   -5.6796 C   0  0  0  0  0  0  0  0  0  0  0  0
   18.3331   -8.1985   -5.0887 O   0  0  0  0  0  0  0  0  0  0  0  0
   19.0869   -7.6586   -3.9097 C   0  0  0  0  0  0  0  0  0  0  0  0
   18.7089   -6.3315   -3.3216 C   0  0  0  0  0  0  0  0  0  0  0  0
   17.5770   -5.5444   -3.9124 C   0  0  0  0  0  0  0  0  0  0  0  0
   17.4936   -4.2994   -3.0799 C   0  0  0  0  0  0  0  0  0  0  0  0
   16.6218   -3.0788   -3.0815 C   0  0  0  0  0  0  0  0  0  0  0  0
   15.4723   -2.5974   -3.9163 C   0  0  0  0  0  0  0  0  0  0  0  0
   14.9554   -1.2631   -3.4665 C   0  0  0  0  0  0  0  0  0  0  0  0
   13.8515   -0.5909   -4.2278 O   0  0  0  0  0  0  0  0  0  0  0  0
   14.7184   -3.1374   -5.0953 C   0  0  0  0  0  0  0  0  0  0  0  0
   14.8018   -4.3823   -5.9279 C   0  0  0  0  0  0  0  0  0  0  0  0
   15.6736   -5.6030   -5.9263 C   0  0  0  0  0  0  0  0  0  0  0  0
   16.8232   -6.0843   -5.0914 C   0  0  0  0  0  0  0  0  0  0  0  0
  1  2  1  0
  2  3  1  0
  3  4  2  0
  4  5  1  0
  5  6  2  0
  6  7  1  0
  7  8  2  3
  8  9  1  0
  9 10  2  0
  8 11  1  0
 11 12  2  3
 12 13  1  0
 13 14  2  3
 14  1  1  0
  6  1  1  0
 14  5  1  0
M  END
>  <docking_score>  (3) 
-4.3259999999999996

$$$$
