
     RDKit          3D

 18 18  0  0  0  0  0  0  0  0999 V2000
   14.5806   -4.4377   -7.5849 C   0  0  0  0  0  0  0  0  0  0  0  0
   15.2210   -3.2103   -8.1319 C   0  0  0  0  0  3  0  0  0  0  0  0
   15.8852   -2.3420   -7.1188 C   0  0  0  0  0  0  0  0  0  0  0  0
   14.8523   -1.7633   -6.2115 C   0  0  2  0  0  0  0  0  0  0  0  0
   15.1759   -0.3992   -5.7273 C   0  0  0  0  0  0  0  0  0  0  0  0
   14.3337    0.1622   -5.0415 O   0  0  0  0  0  0  0  0  0  0  0  0
   14.7314   -2.6724   -4.9844 C   0  0  0  0  0  0  0  0  0  0  0  0
   13.9148   -3.7331   -5.3736 O   0  0  0  0  0  0  0  0  0  0  0  0
   14.7087   -4.6114   -6.1098 C   0  0  1  0  0  0  0  0  0  0  0  0
   14.2916   -6.0135   -5.7243 C   0  0  0  0  0  0  0  0  0  0  0  0
   15.1374   -6.4605   -4.5540 C   0  0  0  0  0  0  0  0  0  0  0  0
   16.5838   -6.1913   -4.8655 C   0  0  0  0  0  0  0  0  0  0  0  0
   17.2441   -5.9602   -3.6551 O   0  0  0  0  0  0  0  0  0  0  0  0
   17.7832   -4.6724   -3.7211 C   0  0  2  0  0  0  0  0  0  0  0  0
   18.2707   -4.4621   -5.1390 C   0  0  0  0  0  0  0  0  0  0  0  0
   18.9753   -4.6088   -2.7812 C   0  0  0  0  0  0  0  0  0  0  0  0
   18.7501   -3.5690   -1.7127 C   0  0  0  0  0  0  0  0  0  0  0  0
   18.2316   -2.4243   -2.3201 O   0  0  0  0  0  0  0  0  0  0  0  0
  1  2  1  0
  2  3  1  0
  3  4  1  0
  4  5  1  1
  5  6  2  0
  4  7  1  0
  7  8  1  0
  8  9  1  0
  9 10  1  6
 10 11  1  0
 11 12  1  0
 12 13  1  0
 13 14  1  0
 14 15  1  6
 14 16  1  0
 16 17  1  0
 17 18  1  0
  9  1  1  0
M  RAD  1   2   2
M  END
>  <docking_score>  (1) 
-4.0209999999999999

$$$$

     RDKit          3D

 18 18  0  0  0  0  0  0  0  0999 V2000
   16.8283   -3.5249   -2.0336 C   0  0  0  0  0  0  0  0  0  0  0  0
   16.9084   -2.0390   -2.0740 C   0  0  0  0  0  3  0  0  0  0  0  0
   18.0997   -1.4918   -2.7830 C   0  0  0  0  0  0  0  0  0  0  0  0
   19.3320   -1.8385   -2.0173 C   0  0  2  0  0  0  0  0  0  0  0  0
   20.3976   -0.8100   -2.0986 C   0  0  0  0  0  0  0  0  0  0  0  0
   20.6258   -0.1639   -1.0861 O   0  0  0  0  0  0  0  0  0  0  0  0
   19.9010   -3.1395   -2.5921 C   0  0  0  0  0  0  0  0  0  0  0  0
   19.1554   -4.1687   -2.0192 O   0  0  0  0  0  0  0  0  0  0  0  0
   17.9487   -4.2350   -2.7143 C   0  0  1  0  0  0  0  0  0  0  0  0
   17.6052   -5.7005   -2.8653 C   0  0  0  0  0  0  0  0  0  0  0  0
   17.1935   -5.9511   -4.2979 C   0  0  0  0  0  0  0  0  0  0  0  0
   15.7195   -6.2466   -4.3380 C   0  0  0  0  0  0  0  0  0  0  0  0
   15.0527   -5.0493   -4.6142 O   0  0  0  0  0  0  0  0  0  0  0  0
   15.3586   -4.7042   -5.9336 C   0  0  2  0  0  0  0  0  0  0  0  0
   15.3403   -3.1927   -6.0179 C   0  0  0  0  0  0  0  0  0  0  0  0
   14.2656   -5.2559   -6.8335 C   0  0  0  0  0  0  0  0  0  0  0  0
   14.7051   -5.2279   -8.2756 C   0  0  0  0  0  0  0  0  0  0  0  0
   15.8967   -5.9467   -8.3827 O   0  0  0  0  0  0  0  0  0  0  0  0
  1  2  1  0
  2  3  1  0
  3  4  1  0
  4  5  1  6
  5  6  2  0
  4  7  1  0
  7  8  1  0
  8  9  1  0
  9 10  1  1
 10 11  1  0
 11 12  1  0
 12 13  1  0
 13 14  1  0
 14 15  1  1
 14 16  1  0
 16 17  1  0
 17 18  1  0
  9  1  1  0
M  RAD  1   2   2
M  END
>  <docking_score>  (2) 
-3.738

$$$$

     RDKit          3D

 18 18  0  0  0  0  0  0  0  0999 V2000
   18.0466   -5.2009   -5.1659 C   0  0  0  0  0  0  0  0  0  0  0  0
   17.6471   -5.5449   -6.5580 C   0  0  0  0  0  3  0  0  0  0  0  0
   17.1194   -6.9271   -6.7380 C   0  0  0  0  0  0  0  0  0  0  0  0
   18.2136   -7.9096   -6.4879 C   0  0  2  0  0  0  0  0  0  0  0  0
   18.1224   -9.1336   -7.3206 C   0  0  0  0  0  0  0  0  0  0  0  0
   18.5444   -9.0603   -8.4658 O   0  0  0  0  0  0  0  0  0  0  0  0
   18.1399   -8.3429   -5.0204 C   0  0  0  0  0  0  0  0  0  0  0  0
   18.7671   -7.3332   -4.2918 O   0  0  0  0  0  0  0  0  0  0  0  0
   17.8508   -6.2900   -4.1668 C   0  0  1  0  0  0  0  0  0  0  0  0
   18.0041   -5.7319   -2.7690 C   0  0  0  0  0  0  0  0  0  0  0  0
   16.7882   -4.8917   -2.4524 C   0  0  0  0  0  0  0  0  0  0  0  0
   17.2397   -3.5660   -1.9042 C   0  0  0  0  0  0  0  0  0  0  0  0
   16.2890   -2.6083   -2.2692 O   0  0  0  0  0  0  0  0  0  0  0  0
   16.3797   -2.4473   -3.6545 C   0  0  2  0  0  0  0  0  0  0  0  0
   17.6552   -1.6812   -3.9349 C   0  0  0  0  0  0  0  0  0  0  0  0
   15.1975   -1.6101   -4.1129 C   0  0  0  0  0  0  0  0  0  0  0  0
   14.3351   -2.3940   -5.0698 C   0  0  0  0  0  0  0  0  0  0  0  0
   15.1686   -3.0075   -6.0061 O   0  0  0  0  0  0  0  0  0  0  0  0
  1  2  1  0
  2  3  1  0
  3  4  1  0
  4  5  1  6
  5  6  2  0
  4  7  1  0
  7  8  1  0
  8  9  1  0
  9 10  1  1
 10 11  1  0
 11 12  1  0
 12 13  1  0
 13 14  1  0
 14 15  1  1
 14 16  1  0
 16 17  1  0
 17 18  1  0
  9  1  1  0
M  RAD  1   2   2
M  END
>  <docking_score>  (3) 
-3.4489999999999998

$$$$
