
     RDKit          3D

 18 18  0  0  0  0  0  0  0  0999 V2000
   17.9280   -5.7139   -2.8834 C   0  0  0  0  0  0  0  0  0  0  0  0
   18.2222   -4.5871   -2.1683 O   0  0  0  0  0  0  0  0  0  0  0  0
   16.9635   -3.9414   -1.8815 C   0  0  0  0  0  3  0  0  0  0  0  0
   16.4499   -3.6028   -3.1442 O   0  0  0  0  0  0  0  0  0  0  0  0
   16.6817   -2.3182   -3.4854 C   0  0  2  0  0  0  0  0  0  0  0  0
   16.0263   -1.5426   -2.3373 C   0  0  0  0  0  0  0  0  0  0  0  0
   16.4354   -1.8727   -4.8018 C   0  0  1  0  0  0  0  0  0  0  0  0
   17.4407   -2.4267   -5.7994 C   0  0  0  0  0  3  0  0  0  0  0  0
   16.8729   -2.0624   -7.1172 C   0  0  0  0  0  3  0  0  0  0  0  0
   15.4010   -1.9690   -6.9611 C   0  0  0  0  0  0  0  0  0  0  0  0
   15.1433   -2.0693   -5.4457 C   0  0  2  0  0  0  0  0  0  0  0  0
   14.3322   -0.7190   -5.2050 C   0  0  0  0  0  0  0  0  0  0  0  0
   14.2241   -3.1594   -5.2368 C   0  0  0  0  0  0  0  0  0  0  0  0
   14.2548   -4.2851   -6.2164 C   0  0  0  0  0  0  0  0  0  0  0  0
   15.0696   -5.4482   -5.5339 C   0  0  1  0  0  0  0  0  0  0  0  0
   14.1880   -6.4411   -5.2280 O   0  0  0  0  0  0  0  0  0  0  0  0
   15.9766   -5.9297   -6.6931 C   0  0  0  0  0  3  0  0  0  0  0  0
   15.2998   -5.6145   -7.9063 O   0  0  0  0  0  0  0  0  0  0  0  0
  1  2  1  0
  2  3  1  0
  3  4  1  0
  4  5  1  0
  5  6  1  1
  5  7  1  0
  7  8  1  6
  8  9  1  0
  9 10  1  0
 10 11  1  0
 11 12  1  1
 11 13  1  0
 13 14  1  0
 14 15  1  0
 15 16  1  6
 15 17  1  0
 17 18  1  0
 11  7  1  0
M  RAD  4   3   2   8   2   9   2  17   2
M  END
>  <docking_score>  (1) 
-4.3040000000000003

$$$$

     RDKit          3D

 18 18  0  0  0  0  0  0  0  0999 V2000
   17.6382   -9.1258   -6.6264 C   0  0  0  0  0  0  0  0  0  0  0  0
   17.4628   -8.9256   -5.2860 O   0  0  0  0  0  0  0  0  0  0  0  0
   18.5822   -8.1316   -4.8386 C   0  0  0  0  0  3  0  0  0  0  0  0
   17.9958   -6.9712   -4.3071 O   0  0  0  0  0  0  0  0  0  0  0  0
   18.9007   -6.0574   -3.8988 C   0  0  2  0  0  0  0  0  0  0  0  0
   20.1731   -6.8959   -3.7333 C   0  0  0  0  0  0  0  0  0  0  0  0
   18.5801   -5.1432   -2.8724 C   0  0  1  0  0  0  0  0  0  0  0  0
   19.7421   -4.2236   -2.5307 C   0  0  0  0  0  3  0  0  0  0  0  0
   19.1399   -3.2030   -1.6434 C   0  0  0  0  0  3  0  0  0  0  0  0
   17.7040   -3.0916   -1.9976 C   0  0  0  0  0  0  0  0  0  0  0  0
   17.4329   -4.2510   -2.9749 C   0  0  2  0  0  0  0  0  0  0  0  0
   16.2428   -4.9905   -2.2160 C   0  0  0  0  0  0  0  0  0  0  0  0
   16.8796   -3.6799   -4.1769 C   0  0  0  0  0  0  0  0  0  0  0  0
   16.1718   -2.3715   -4.0567 C   0  0  0  0  0  0  0  0  0  0  0  0
   15.0835   -2.3467   -5.1958 C   0  0  1  0  0  0  0  0  0  0  0  0
   14.3730   -3.5061   -5.1087 O   0  0  0  0  0  0  0  0  0  0  0  0
   14.1762   -1.1738   -4.7494 C   0  0  0  0  0  3  0  0  0  0  0  0
   14.5267   -0.8689   -3.4028 O   0  0  0  0  0  0  0  0  0  0  0  0
  1  2  1  0
  2  3  1  0
  3  4  1  0
  4  5  1  0
  5  6  1  1
  5  7  1  0
  7  8  1  6
  8  9  1  0
  9 10  1  0
 10 11  1  0
 11 12  1  1
 11 13  1  0
 13 14  1  0
 14 15  1  0
 15 16  1  1
 15 17  1  0
 17 18  1  0
 11  7  1  0
M  RAD  4   3   2   8   2   9   2  17   2
M  END
>  <docking_score>  (2) 
-4.0670000000000002

$$$$

     RDKit          3D

 18 18  0  0  0  0  0  0  0  0999 V2000
   17.0694   -6.3500   -8.5931 C   0  0  0  0  0  0  0  0  0  0  0  0
   17.0268   -7.1832   -7.5108 O   0  0  0  0  0  0  0  0  0  0  0  0
   16.6326   -6.3731   -6.3829 C   0  0  0  0  0  3  0  0  0  0  0  0
   15.7852   -5.3978   -6.9338 O   0  0  0  0  0  0  0  0  0  0  0  0
   15.1445   -4.6624   -6.0016 C   0  0  2  0  0  0  0  0  0  0  0  0
   13.8295   -5.4276   -5.8160 C   0  0  0  0  0  0  0  0  0  0  0  0
   15.0739   -3.2580   -6.1235 C   0  0  1  0  0  0  0  0  0  0  0  0
   14.2399   -2.6212   -5.0228 C   0  0  0  0  0  3  0  0  0  0  0  0
   14.4965   -1.1712   -5.1749 C   0  0  0  0  0  3  0  0  0  0  0  0
   15.8420   -1.0146   -5.7787 C   0  0  0  0  0  0  0  0  0  0  0  0
   16.2748   -2.4354   -6.1871 C   0  0  2  0  0  0  0  0  0  0  0  0
   16.5615   -2.2108   -7.7383 C   0  0  0  0  0  0  0  0  0  0  0  0
   17.5431   -2.6973   -5.5548 C   0  0  0  0  0  0  0  0  0  0  0  0
   17.6826   -2.3371   -4.1131 C   0  0  0  0  0  0  0  0  0  0  0  0
   17.5245   -3.6780   -3.3010 C   0  0  1  0  0  0  0  0  0  0  0  0
   18.7669   -4.0560   -2.8885 O   0  0  0  0  0  0  0  0  0  0  0  0
   16.7119   -3.2137   -2.0672 C   0  0  0  0  0  3  0  0  0  0  0  0
   16.4026   -1.8380   -2.2693 O   0  0  0  0  0  0  0  0  0  0  0  0
  1  2  1  0
  2  3  1  0
  3  4  1  0
  4  5  1  0
  5  6  1  6
  5  7  1  0
  7  8  1  1
  8  9  1  0
  9 10  1  0
 10 11  1  0
 11 12  1  6
 11 13  1  0
 13 14  1  0
 14 15  1  0
 15 16  1  1
 15 17  1  0
 17 18  1  0
 11  7  1  0
M  RAD  4   3   2   8   2   9   2  17   2
M  END
>  <docking_score>  (3) 
-3.8959999999999999

$$$$
