
     RDKit          3D

 23 25  0  0  0  0  0  0  0  0999 V2000
   14.2590   -1.4147   -5.0454 C   0  0  0  0  0  0  0  0  0  0  0  0
   14.6620   -2.8190   -4.6169 C   0  0  1  0  0  0  0  0  0  0  0  0
   14.1739   -3.8178   -5.6616 C   0  0  0  0  0  0  0  0  0  0  0  0
   15.2633   -4.8115   -6.0080 C   0  0  2  0  0  0  0  0  0  0  0  0
   15.6963   -5.5086   -4.8808 O   0  0  0  0  0  0  0  0  0  0  0  0
   16.4469   -4.1231   -6.6799 C   0  0  2  0  0  0  0  0  0  0  0  0
   17.5989   -4.9025   -6.4170 O   0  0  0  0  0  0  0  0  0  0  0  0
   16.6949   -2.8089   -5.9302 C   0  0  1  0  0  0  0  0  0  0  0  0
   15.9126   -1.8258   -6.5722 O   0  0  0  0  0  0  0  0  0  0  0  0
   16.1732   -2.9109   -4.5107 C   0  0  1  0  0  0  0  0  0  0  0  0
   16.7040   -1.8429   -3.7568 N   0  0  0  0  0  0  0  0  0  0  0  0
   17.6844   -2.1144   -2.7778 C   0  0  1  0  0  0  0  0  0  0  0  0
   17.6830   -3.5293   -2.4124 C   0  0  0  0  0  0  0  0  0  0  0  0
   18.8191   -4.3849   -2.7248 C   0  0  2  0  0  0  0  0  0  0  0  0
   20.1213   -4.0097   -3.2283 C   0  0  0  0  0  2  0  0  0  0  0  0
   18.5051   -5.8880   -2.7718 C   0  0  0  0  0  0  0  0  0  0  0  0
   19.0030   -6.4414   -3.9424 O   0  0  0  0  0  0  0  0  0  0  0  0
   19.9604   -4.0374   -1.7432 C   0  0  1  0  0  0  0  0  0  0  0  0
   19.7418   -2.7987   -1.1449 O   0  0  0  0  0  0  0  0  0  0  0  0
   20.0524   -1.7939   -2.0276 C   0  0  2  0  0  0  0  0  0  0  0  0
   20.4820   -0.5776   -1.2376 C   0  0  0  0  0  0  0  0  0  0  0  0
   18.9897   -1.4313   -2.9868 C   0  0  1  0  0  0  0  0  0  0  0  0
   19.4587   -1.4969   -4.2902 O   0  0  0  0  0  0  0  0  0  0  0  0
  2  1  1  6
  2  3  1  0
  3  4  1  0
  4  5  1  1
  4  6  1  0
  6  7  1  1
  6  8  1  0
  8  9  1  6
  8 10  1  0
 10 11  1  1
 12 11  1  6
 12 13  1  0
 13 14  1  0
 14 15  1  0
 14 16  1  1
 16 17  1  0
 14 18  1  0
 18 19  1  0
 19 20  1  0
 20 21  1  1
 20 22  1  0
 22 23  1  6
 10  2  1  0
 22 12  1  0
 18 15  1  6
M  RAD  1  15   3
M  END
>  <docking_score>  (1) 
-5.3700000000000001

$$$$

     RDKit          3D

 23 25  0  0  0  0  0  0  0  0999 V2000
   19.8145   -2.1795   -1.7123 C   0  0  0  0  0  0  0  0  0  0  0  0
   19.9270   -3.0118   -2.9822 C   0  0  1  0  0  0  0  0  0  0  0  0
   20.4985   -4.3820   -2.6307 C   0  0  0  0  0  0  0  0  0  0  0  0
   19.7093   -5.4847   -3.3055 C   0  0  2  0  0  0  0  0  0  0  0  0
   19.7064   -5.3361   -4.6919 O   0  0  0  0  0  0  0  0  0  0  0  0
   18.2766   -5.5377   -2.7853 C   0  0  2  0  0  0  0  0  0  0  0  0
   17.4717   -6.0933   -3.8087 O   0  0  0  0  0  0  0  0  0  0  0  0
   17.7855   -4.0910   -2.6554 C   0  0  1  0  0  0  0  0  0  0  0  0
   18.1165   -3.6696   -1.3503 O   0  0  0  0  0  0  0  0  0  0  0  0
   18.5539   -3.1916   -3.6032 C   0  0  1  0  0  0  0  0  0  0  0  0
   17.8710   -1.9616   -3.7116 N   0  0  0  0  0  0  0  0  0  0  0  0
   17.0797   -1.7143   -4.8544 C   0  0  1  0  0  0  0  0  0  0  0  0
   17.4647   -2.5907   -5.9586 C   0  0  0  0  0  0  0  0  0  0  0  0
   16.5533   -3.6104   -6.4586 C   0  0  2  0  0  0  0  0  0  0  0  0
   15.1592   -3.8138   -6.1341 C   0  0  0  0  0  2  0  0  0  0  0  0
   17.2249   -4.7629   -7.2205 C   0  0  0  0  0  0  0  0  0  0  0  0
   16.6249   -5.9679   -6.8855 O   0  0  0  0  0  0  0  0  0  0  0  0
   15.4535   -2.9031   -7.2814 C   0  0  1  0  0  0  0  0  0  0  0  0
   15.4101   -1.5423   -6.9876 O   0  0  0  0  0  0  0  0  0  0  0  0
   14.7826   -1.3459   -5.7821 C   0  0  2  0  0  0  0  0  0  0  0  0
   14.1367    0.0218   -5.7952 C   0  0  0  0  0  0  0  0  0  0  0  0
   15.6325   -1.4985   -4.5841 C   0  0  1  0  0  0  0  0  0  0  0  0
   15.0804   -2.4147   -3.7015 O   0  0  0  0  0  0  0  0  0  0  0  0
  2  1  1  1
  2  3  1  0
  3  4  1  0
  4  5  1  6
  4  6  1  0
  6  7  1  6
  6  8  1  0
  8  9  1  1
  8 10  1  0
 10 11  1  1
 12 11  1  1
 12 13  1  0
 13 14  1  0
 14 15  1  0
 14 16  1  6
 16 17  1  0
 14 18  1  0
 18 19  1  0
 19 20  1  0
 20 21  1  6
 20 22  1  0
 22 23  1  6
 10  2  1  0
 22 12  1  0
 18 15  1  1
M  RAD  1  15   3
M  END
>  <docking_score>  (2) 
-4.9189999999999996

$$$$

     RDKit          3D

 23 25  0  0  0  0  0  0  0  0999 V2000
    3.3396   10.2593    1.8932 C   0  0  0  0  0  0  0  0  0  0  0  0
    3.6970   10.8556    3.2477 C   0  0  1  0  0  0  0  0  0  0  0  0
    3.3355    9.8568    4.3427 C   0  0  0  0  0  0  0  0  0  0  0  0
    4.4614    9.7271    5.3474 C   0  0  2  0  0  0  0  0  0  0  0  0
    4.7660   10.9543    5.9349 O   0  0  0  0  0  0  0  0  0  0  0  0
    5.7110    9.1341    4.7047 C   0  0  2  0  0  0  0  0  0  0  0  0
    6.8288    9.5951    5.4408 O   0  0  0  0  0  0  0  0  0  0  0  0
    5.8664    9.7855    3.3254 C   0  0  1  0  0  0  0  0  0  0  0  0
    5.1584    8.9730    2.4148 O   0  0  0  0  0  0  0  0  0  0  0  0
    5.1866   11.1402    3.3080 C   0  0  1  0  0  0  0  0  0  0  0  0
    5.6234   11.8499    2.1694 N   0  0  0  0  0  0  0  0  0  0  0  0
    6.1543   13.1480    2.3317 C   0  0  1  0  0  0  0  0  0  0  0  0
    5.3121   13.9525    3.2143 C   0  0  0  0  0  0  0  0  0  0  0  0
    5.7962   14.3934    4.5149 C   0  0  2  0  0  0  0  0  0  0  0  0
    7.1326   14.3042    5.0593 C   0  0  0  0  0  2  0  0  0  0  0  0
    4.6984   14.7577    5.5259 C   0  0  0  0  0  0  0  0  0  0  0  0
    4.8168   13.9694    6.6611 O   0  0  0  0  0  0  0  0  0  0  0  0
    6.8070   15.5385    4.2829 C   0  0  1  0  0  0  0  0  0  0  0  0
    7.2543   15.5476    2.9640 O   0  0  0  0  0  0  0  0  0  0  0  0
    8.1804   14.5506    2.7794 C   0  0  2  0  0  0  0  0  0  0  0  0
    9.1219   14.9698    1.6722 C   0  0  0  0  0  0  0  0  0  0  0  0
    7.6312   13.2080    2.5025 C   0  0  1  0  0  0  0  0  0  0  0  0
    8.1342   12.2755    3.3973 O   0  0  0  0  0  0  0  0  0  0  0  0
  2  1  1  6
  2  3  1  0
  3  4  1  0
  4  5  1  6
  4  6  1  0
  6  7  1  1
  6  8  1  0
  8  9  1  6
  8 10  1  0
 10 11  1  6
 12 11  1  1
 12 13  1  0
 13 14  1  0
 14 15  1  0
 14 16  1  1
 16 17  1  0
 14 18  1  0
 18 19  1  0
 19 20  1  0
 20 21  1  6
 20 22  1  0
 22 23  1  1
 10  2  1  0
 22 12  1  0
 18 15  1  1
M  RAD  1  15   3
M  END
>  <docking_score>  (3) 
-4.444

$$$$
