
     RDKit          3D

 30 30  0  0  0  0  0  0  0  0999 V2000
    2.2646    9.1409   16.2653 C   0  0  0  0  0  0  0  0  0  0  0  0
    3.4212    8.9034   15.3731 C   0  0  0  0  0  0  0  0  0  0  0  0
    3.4775    7.5236   14.7728 C   0  0  0  0  0  0  0  0  0  0  0  0
    3.9640    9.9596   14.5601 C   0  0  0  0  0  0  0  0  0  0  0  0
    4.3235    9.8517   13.1850 C   0  0  0  0  0  0  0  0  0  0  0  0
    4.0698   10.9291   12.2286 C   0  0  0  0  0  0  0  0  0  0  0  0
    5.2361   11.1900   11.3240 C   0  0  1  0  0  0  0  0  0  0  0  0
    6.4938   10.7106   12.0386 C   0  0  0  0  0  0  0  0  0  0  0  0
    5.1070   10.4003   10.0322 C   0  0  0  0  0  3  0  0  0  0  0  0
    4.1475   11.1414    9.1330 C   0  0  0  0  0  0  0  0  0  0  0  0
    2.9420   10.2958    8.8900 C   0  0  0  0  0  0  0  0  0  0  0  0
    3.2763    8.8058    9.0247 C   0  0  0  0  0  0  0  0  0  0  0  0
    2.6307    8.2371   10.2672 C   0  0  0  0  0  0  0  0  0  0  0  0
    4.7680    8.6262    9.1179 C   0  0  0  0  0  0  0  0  0  0  0  0
    2.7545    8.1332    7.9188 O   0  0  0  0  0  0  0  0  0  0  0  0
    2.7264    6.7733    8.1678 C   0  0  0  0  0  0  0  0  0  0  0  0
    3.0324    5.9617    6.9542 C   0  0  0  0  0  3  0  0  0  0  0  0
    2.2643    6.4163    5.7590 C   0  0  0  0  0  0  0  0  0  0  0  0
    2.9837    6.3774    4.4577 C   0  0  0  0  0  0  0  0  0  0  0  0
    4.0002    7.4530    4.3480 C   0  0  1  0  0  0  0  0  0  0  0  0
    4.9608    7.5187    5.5020 C   0  0  0  0  0  0  0  0  0  0  0  0
    4.6176    7.6631    3.0266 C   0  0  0  0  0  0  0  0  0  0  0  0
    4.6837    9.0005    2.4478 C   0  0  0  0  0  0  0  0  0  0  0  0
    5.8019    9.8977    2.7580 C   0  0  0  0  0  0  0  0  0  0  0  0
    5.6392   11.3215    2.3837 C   0  0  1  0  0  0  0  0  0  0  0  0
    6.4919   11.7892    1.4148 O   0  0  0  0  0  0  0  0  0  0  0  0
    4.2044   11.6814    2.1835 C   0  0  2  0  0  0  0  0  0  0  0  0
    3.5420   12.7693    2.7639 C   0  0  0  0  0  0  0  0  0  0  0  0
    3.2796   11.4998    3.3031 C   0  0  0  0  0  0  0  0  0  0  0  0
    2.4921   10.7993    4.3557 C   0  0  0  0  0  0  0  0  0  0  0  0
  1  2  1  0
  2  3  1  0
  2  4  1  0
  4  5  1  0
  5  6  1  0
  6  7  1  0
  7  8  1  1
  7  9  1  0
  9 10  1  0
 10 11  1  0
 11 12  1  0
 12 13  1  0
 12 14  1  0
 12 15  1  0
 15 16  1  0
 16 17  1  0
 17 18  1  0
 18 19  1  0
 19 20  1  0
 20 21  1  1
 20 22  1  0
 22 23  1  0
 23 24  1  0
 24 25  1  0
 25 26  1  6
 25 27  1  0
 27 28  1  1
 28 29  2  0
 29 30  1  0
 29 27  1  0
M  RAD  2   9   2  17   2
M  END
>  <docking_score>  (1) 
-2.343

$$$$

     RDKit          3D

 30 30  0  0  0  0  0  0  0  0999 V2000
   19.8513   -7.2875   -3.5172 C   0  0  0  0  0  0  0  0  0  0  0  0
   19.9704   -7.6107   -4.9565 C   0  0  0  0  0  0  0  0  0  0  0  0
   21.3540   -7.4395   -5.5255 C   0  0  0  0  0  0  0  0  0  0  0  0
   19.1742   -8.6494   -5.5549 C   0  0  0  0  0  0  0  0  0  0  0  0
   18.6240   -8.6245   -6.8697 C   0  0  0  0  0  0  0  0  0  0  0  0
   17.3177   -8.0307   -7.1543 C   0  0  0  0  0  0  0  0  0  0  0  0
   17.4092   -6.5891   -7.5545 C   0  0  1  0  0  0  0  0  0  0  0  0
   18.8450   -6.3181   -7.9874 C   0  0  0  0  0  0  0  0  0  0  0  0
   16.5043   -6.2976   -8.7399 C   0  0  0  0  0  3  0  0  0  0  0  0
   15.3685   -5.4322   -8.2508 C   0  0  0  0  0  0  0  0  0  0  0  0
   15.7928   -4.7075   -7.0171 C   0  0  0  0  0  0  0  0  0  0  0  0
   15.3753   -5.4727   -5.7560 C   0  0  0  0  0  0  0  0  0  0  0  0
   14.4439   -6.6062   -6.1187 C   0  0  0  0  0  0  0  0  0  0  0  0
   14.6715   -4.5409   -4.8060 C   0  0  0  0  0  0  0  0  0  0  0  0
   16.5182   -6.0211   -5.1721 O   0  0  0  0  0  0  0  0  0  0  0  0
   16.7186   -5.4648   -3.9221 C   0  0  0  0  0  0  0  0  0  0  0  0
   18.0661   -4.8407   -3.7817 C   0  0  0  0  0  3  0  0  0  0  0  0
   18.3591   -3.8705   -4.8761 C   0  0  0  0  0  0  0  0  0  0  0  0
   18.3317   -2.4300   -4.5065 C   0  0  0  0  0  0  0  0  0  0  0  0
   19.6180   -1.7518   -4.8031 C   0  0  1  0  0  0  0  0  0  0  0  0
   20.3088   -2.2467   -6.0426 C   0  0  0  0  0  0  0  0  0  0  0  0
   19.6663   -0.2905   -4.6190 C   0  0  0  0  0  0  0  0  0  0  0  0
   18.8728    0.5868   -5.4726 C   0  0  0  0  0  0  0  0  0  0  0  0
   17.6103    0.1229   -6.0577 C   0  0  0  0  0  0  0  0  0  0  0  0
   16.3625    0.6126   -5.4275 C   0  0  1  0  0  0  0  0  0  0  0  0
   16.0732    1.9405   -5.6203 O   0  0  0  0  0  0  0  0  0  0  0  0
   15.2202   -0.3190   -5.6631 C   0  0  2  0  0  0  0  0  0  0  0  0
   15.1209   -1.6326   -5.1903 C   0  0  0  0  0  0  0  0  0  0  0  0
   15.4289   -1.4644   -6.5498 C   0  0  0  0  0  0  0  0  0  0  0  0
   15.7181   -2.2187   -7.8013 C   0  0  0  0  0  0  0  0  0  0  0  0
  1  2  1  0
  2  3  1  0
  2  4  1  0
  4  5  1  0
  5  6  1  0
  6  7  1  0
  7  8  1  6
  7  9  1  0
  9 10  1  0
 10 11  1  0
 11 12  1  0
 12 13  1  0
 12 14  1  0
 12 15  1  0
 15 16  1  0
 16 17  1  0
 17 18  1  0
 18 19  1  0
 19 20  1  0
 20 21  1  6
 20 22  1  0
 22 23  1  0
 23 24  1  0
 24 25  1  0
 25 26  1  6
 25 27  1  0
 27 28  1  1
 28 29  2  0
 29 30  1  0
 29 27  1  0
M  RAD  2   9   2  17   2
M  END
>  <docking_score>  (2) 
-0.26600000000000001

$$$$

     RDKit          3D

 30 30  0  0  0  0  0  0  0  0999 V2000
   16.8464  -10.8803   -6.3240 C   0  0  0  0  0  0  0  0  0  0  0  0
   18.0439  -10.0958   -6.6993 C   0  0  0  0  0  0  0  0  0  0  0  0
   18.5102  -10.3020   -8.1161 C   0  0  0  0  0  0  0  0  0  0  0  0
   18.2790   -8.7867   -6.1497 C   0  0  0  0  0  0  0  0  0  0  0  0
   17.6064   -7.5895   -6.5322 C   0  0  0  0  0  0  0  0  0  0  0  0
   18.1065   -6.2653   -6.1627 C   0  0  0  0  0  0  0  0  0  0  0  0
   17.2182   -5.5614   -5.1819 C   0  0  1  0  0  0  0  0  0  0  0  0
   17.8701   -5.6647   -3.8083 C   0  0  0  0  0  0  0  0  0  0  0  0
   17.0928   -4.0866   -5.5261 C   0  0  0  0  0  3  0  0  0  0  0  0
   16.3960   -3.4023   -4.3753 C   0  0  0  0  0  0  0  0  0  0  0  0
   16.8028   -1.9671   -4.3319 C   0  0  0  0  0  0  0  0  0  0  0  0
   15.9835   -1.1308   -5.3216 C   0  0  0  0  0  0  0  0  0  0  0  0
   14.5083   -1.2675   -5.0231 C   0  0  0  0  0  0  0  0  0  0  0  0
   16.2482   -1.6026   -6.7264 C   0  0  0  0  0  0  0  0  0  0  0  0
   16.3347    0.2108   -5.1646 O   0  0  0  0  0  0  0  0  0  0  0  0
   17.6426    0.4032   -5.5700 C   0  0  0  0  0  0  0  0  0  0  0  0
   17.7758    1.4950   -6.5777 C   0  0  0  0  0  3  0  0  0  0  0  0
   18.6187    2.6225   -6.0848 C   0  0  0  0  0  0  0  0  0  0  0  0
   19.7939    2.2531   -5.2512 C   0  0  0  0  0  0  0  0  0  0  0  0
   21.0662    2.7621   -5.8209 C   0  0  1  0  0  0  0  0  0  0  0  0
   21.3660    2.2681   -7.2083 C   0  0  0  0  0  0  0  0  0  0  0  0
   21.3825    4.1839   -5.5971 C   0  0  0  0  0  0  0  0  0  0  0  0
   20.6077    4.9704   -4.6436 C   0  0  0  0  0  0  0  0  0  0  0  0
   19.9919    6.2401   -5.0439 C   0  0  0  0  0  0  0  0  0  0  0  0
   18.5117    6.2826   -5.0788 C   0  0  1  0  0  0  0  0  0  0  0  0
   17.9039    5.3721   -5.9071 O   0  0  0  0  0  0  0  0  0  0  0  0
   17.9276    6.3713   -3.7079 C   0  0  2  0  0  0  0  0  0  0  0  0
   17.4954    7.5417   -3.0737 C   0  0  0  0  0  0  0  0  0  0  0  0
   18.7219    7.0027   -2.6535 C   0  0  0  0  0  0  0  0  0  0  0  0
   19.8469    7.2187   -1.7013 C   0  0  0  0  0  0  0  0  0  0  0  0
  1  2  1  0
  2  3  1  0
  2  4  1  0
  4  5  1  0
  5  6  1  0
  6  7  1  0
  7  8  1  1
  7  9  1  0
  9 10  1  0
 10 11  1  0
 11 12  1  0
 12 13  1  0
 12 14  1  0
 12 15  1  0
 15 16  1  0
 16 17  1  0
 17 18  1  0
 18 19  1  0
 19 20  1  0
 20 21  1  6
 20 22  1  0
 22 23  1  0
 23 24  1  0
 24 25  1  0
 25 26  1  1
 25 27  1  0
 27 28  1  6
 28 29  2  0
 29 30  1  0
 29 27  1  0
M  RAD  2   9   2  17   2
M  END
>  <docking_score>  (3) 
0.495

$$$$
