
     RDKit          3D

 29 30  0  0  0  0  0  0  0  0999 V2000
   14.3780   -3.2930   -5.1063 C   0  0  0  0  0  0  0  0  0  0  0  0
   13.1731   -3.8335   -5.5395 O   0  0  0  0  0  0  0  0  0  0  0  0
   13.2250   -5.1861   -5.7943 C   0  0  0  0  0  3  0  0  0  0  0  0
   14.4967   -5.6641   -6.0613 O   0  0  0  0  0  0  0  0  0  0  0  0
   14.8048   -6.5780   -5.0515 C   0  0  2  0  0  0  0  0  0  0  0  0
   16.1341   -6.1530   -4.4663 C   0  0  0  0  0  0  0  0  0  0  0  0
   15.4519   -7.8228   -5.6256 C   0  0  0  0  0  3  0  0  0  0  0  0
   16.6205   -7.5667   -4.6856 C   0  0  1  0  0  0  0  0  0  0  0  0
   17.8394   -7.5733   -5.4543 N   0  0  0  0  0  0  0  0  0  0  0  0
   18.9393   -7.7784   -4.5162 C   0  0  0  0  0  3  0  0  0  0  0  0
   20.0503   -6.8065   -4.8046 C   0  0  0  0  0  0  0  0  0  0  0  0
   20.2079   -5.7900   -3.7061 C   0  0  1  0  0  0  0  0  0  0  0  0
   20.6166   -6.3825   -2.5218 O   0  0  0  0  0  0  0  0  0  0  0  0
   21.1358   -4.8372   -4.1426 O   0  0  0  0  0  0  0  0  0  0  0  0
   20.4696   -3.7733   -4.7702 C   0  0  0  0  0  0  0  0  0  0  0  0
   20.1996   -2.7455   -3.7076 C   0  0  1  0  0  0  0  0  0  0  0  0
   21.3825   -2.4884   -3.0004 O   0  0  0  0  0  0  0  0  0  0  0  0
   19.6370   -1.4612   -4.2788 C   0  0  2  0  0  0  0  0  0  0  0  0
   20.6635   -0.6582   -4.7794 O   0  0  0  0  0  0  0  0  0  0  0  0
   18.9200   -0.7373   -3.1524 C   0  0  0  0  0  0  0  0  0  0  0  0
   17.8920   -1.6014   -2.7435 O   0  0  0  0  0  0  0  0  0  0  0  0
   16.9990   -1.6770   -3.8082 C   0  0  0  0  0  3  0  0  0  0  0  0
   15.6818   -1.7740   -3.3425 O   0  0  0  0  0  0  0  0  0  0  0  0
   14.8970   -1.0088   -4.1846 C   0  0  2  0  0  0  0  0  0  0  0  0
   13.8863   -0.3369   -3.4883 O   0  0  0  0  0  0  0  0  0  0  0  0
   14.2436   -1.7896   -5.2821 C   0  0  1  0  0  0  0  0  0  0  0  0
   14.5834   -1.3662   -6.5515 O   0  0  0  0  0  0  0  0  0  0  0  0
   15.6793   -2.1281   -6.9788 C   0  0  0  0  0  3  0  0  0  0  0  0
   15.6553   -2.2959   -8.4089 N   0  0  0  0  0  0  0  0  0  0  0  0
  1  2  1  0
  2  3  1  0
  3  4  1  0
  4  5  1  0
  5  6  1  1
  5  7  1  0
  8  7  1  6
  8  9  1  0
  9 10  1  0
 10 11  1  0
 11 12  1  0
 12 13  1  1
 12 14  1  0
 14 15  1  0
 15 16  1  0
 16 17  1  6
 16 18  1  0
 18 19  1  1
 18 20  1  0
 20 21  1  0
 21 22  1  0
 22 23  1  0
 23 24  1  0
 24 25  1  1
 24 26  1  0
 26 27  1  6
 27 28  1  0
 28 29  1  0
 26  1  1  0
  8  6  1  0
M  RAD  5   3   2   7   2  10   2  22   2  28   2
M  END
>  <docking_score>  (1) 
-4.1849999999999996

$$$$

     RDKit          3D

 29 30  0  0  0  0  0  0  0  0999 V2000
    4.2567   10.7140    5.2077 C   0  0  0  0  0  0  0  0  0  0  0  0
    3.9098    9.5153    4.5958 O   0  0  0  0  0  0  0  0  0  0  0  0
    3.7213    8.4715    5.4745 C   0  0  0  0  0  3  0  0  0  0  0  0
    4.3642    8.6311    6.6903 O   0  0  0  0  0  0  0  0  0  0  0  0
    3.3697    8.6817    7.6693 C   0  0  2  0  0  0  0  0  0  0  0  0
    3.6089    9.9419    8.4723 C   0  0  0  0  0  0  0  0  0  0  0  0
    3.7490    7.8399    8.8715 C   0  0  0  0  0  3  0  0  0  0  0  0
    3.5661    9.0899    9.7194 C   0  0  1  0  0  0  0  0  0  0  0  0
    4.7534    9.2861   10.5122 N   0  0  0  0  0  0  0  0  0  0  0  0
    4.3964   10.1820   11.6085 C   0  0  0  0  0  3  0  0  0  0  0  0
    5.4408   11.2537   11.7588 C   0  0  0  0  0  0  0  0  0  0  0  0
    4.9113   12.6117   11.3846 C   0  0  1  0  0  0  0  0  0  0  0  0
    3.9169   13.0262   12.2563 O   0  0  0  0  0  0  0  0  0  0  0  0
    5.9917   13.5018   11.3883 O   0  0  0  0  0  0  0  0  0  0  0  0
    6.5529   13.5780   10.1042 C   0  0  0  0  0  0  0  0  0  0  0  0
    5.8655   14.7131    9.3989 C   0  0  1  0  0  0  0  0  0  0  0  0
    5.8841   15.8487   10.2208 O   0  0  0  0  0  0  0  0  0  0  0  0
    6.4952   15.0229    8.0573 C   0  0  2  0  0  0  0  0  0  0  0  0
    7.6263   15.8245    8.2219 O   0  0  0  0  0  0  0  0  0  0  0  0
    5.4587   15.7595    7.2268 C   0  0  0  0  0  0  0  0  0  0  0  0
    4.3845   14.8668    7.0866 O   0  0  0  0  0  0  0  0  0  0  0  0
    4.8519   13.8129    6.3073 C   0  0  0  0  0  3  0  0  0  0  0  0
    3.8417   13.3372    5.4621 O   0  0  0  0  0  0  0  0  0  0  0  0
    4.4354   13.0354    4.2509 C   0  0  2  0  0  0  0  0  0  0  0  0
    3.6110   13.3648    3.1693 O   0  0  0  0  0  0  0  0  0  0  0  0
    4.8161   11.5951    4.1032 C   0  0  1  0  0  0  0  0  0  0  0  0
    6.1639   11.3901    3.8852 O   0  0  0  0  0  0  0  0  0  0  0  0
    6.3739   11.3552    2.5000 C   0  0  0  0  0  3  0  0  0  0  0  0
    5.3284   10.6114    1.8459 N   0  0  0  0  0  0  0  0  0  0  0  0
  1  2  1  0
  2  3  1  0
  3  4  1  0
  4  5  1  0
  5  6  1  1
  5  7  1  0
  8  7  1  6
  8  9  1  0
  9 10  1  0
 10 11  1  0
 11 12  1  0
 12 13  1  1
 12 14  1  0
 14 15  1  0
 15 16  1  0
 16 17  1  1
 16 18  1  0
 18 19  1  1
 18 20  1  0
 20 21  1  0
 21 22  1  0
 22 23  1  0
 23 24  1  0
 24 25  1  6
 24 26  1  0
 26 27  1  1
 27 28  1  0
 28 29  1  0
 26  1  1  0
  8  6  1  0
M  RAD  5   3   2   7   2  10   2  22   2  28   2
M  END
>  <docking_score>  (2) 
-3.371

$$$$

     RDKit          3D

 29 30  0  0  0  0  0  0  0  0999 V2000
   15.0930   -3.7935   -6.2443 C   0  0  0  0  0  0  0  0  0  0  0  0
   14.1787   -4.3638   -7.1221 O   0  0  0  0  0  0  0  0  0  0  0  0
   14.5135   -5.6354   -7.5320 C   0  0  0  0  0  3  0  0  0  0  0  0
   15.8629   -5.9274   -7.4282 O   0  0  0  0  0  0  0  0  0  0  0  0
   15.9802   -6.9743   -6.5117 C   0  0  2  0  0  0  0  0  0  0  0  0
   16.9820   -6.5323   -5.4671 C   0  0  0  0  0  0  0  0  0  0  0  0
   16.9558   -8.0229   -7.0081 C   0  0  0  0  0  3  0  0  0  0  0  0
   17.7229   -7.8267   -5.7090 C   0  0  1  0  0  0  0  0  0  0  0  0
   19.1056   -7.5716   -6.0250 N   0  0  0  0  0  0  0  0  0  0  0  0
   19.8795   -7.8330   -4.8147 C   0  0  0  0  0  3  0  0  0  0  0  0
   20.8625   -6.7188   -4.5813 C   0  0  0  0  0  0  0  0  0  0  0  0
   20.5151   -5.9086   -3.3616 C   0  0  1  0  0  0  0  0  0  0  0  0
   20.6236   -6.6628   -2.2039 O   0  0  0  0  0  0  0  0  0  0  0  0
   21.3749   -4.8044   -3.3294 O   0  0  0  0  0  0  0  0  0  0  0  0
   20.7804   -3.7161   -3.9864 C   0  0  0  0  0  0  0  0  0  0  0  0
   20.0410   -2.9309   -2.9398 C   0  0  1  0  0  0  0  0  0  0  0  0
   20.8934   -2.6899   -1.8531 O   0  0  0  0  0  0  0  0  0  0  0  0
   19.4927   -1.6268   -3.4791 C   0  0  2  0  0  0  0  0  0  0  0  0
   20.4877   -0.6477   -3.4952 O   0  0  0  0  0  0  0  0  0  0  0  0
   18.3606   -1.1953   -2.5632 C   0  0  0  0  0  0  0  0  0  0  0  0
   17.4018   -2.2175   -2.6418 O   0  0  0  0  0  0  0  0  0  0  0  0
   16.9042   -2.1870   -3.9410 C   0  0  0  0  0  3  0  0  0  0  0  0
   15.5389   -2.4982   -3.9548 O   0  0  0  0  0  0  0  0  0  0  0  0
   14.9451   -1.6749   -4.8930 C   0  0  2  0  0  0  0  0  0  0  0  0
   13.6783   -1.2451   -4.4827 O   0  0  0  0  0  0  0  0  0  0  0  0
   14.7906   -2.3042   -6.2425 C   0  0  1  0  0  0  0  0  0  0  0  0
   15.4370   -1.6252   -7.2560 O   0  0  0  0  0  0  0  0  0  0  0  0
   16.6765   -2.2449   -7.4651 C   0  0  0  0  0  3  0  0  0  0  0  0
   17.7535   -1.3721   -7.0746 N   0  0  0  0  0  0  0  0  0  0  0  0
  1  2  1  0
  2  3  1  0
  3  4  1  0
  4  5  1  0
  5  6  1  1
  5  7  1  0
  8  7  1  6
  8  9  1  0
  9 10  1  0
 10 11  1  0
 11 12  1  0
 12 13  1  1
 12 14  1  0
 14 15  1  0
 15 16  1  0
 16 17  1  1
 16 18  1  0
 18 19  1  1
 18 20  1  0
 20 21  1  0
 21 22  1  0
 22 23  1  0
 23 24  1  0
 24 25  1  1
 24 26  1  0
 26 27  1  6
 27 28  1  0
 28 29  1  0
 26  1  1  0
  8  6  1  0
M  RAD  5   3   2   7   2  10   2  22   2  28   2
M  END
>  <docking_score>  (3) 
-3.0950000000000002

$$$$
