
     RDKit          3D

 44 43  0  0  0  0  0  0  0  0999 V2000
   12.1605   -3.3367   -5.8289 C   0  0  0  0  0  0  0  0  0  0  0  0
   13.4639   -2.6352   -5.7989 C   0  0  0  0  0  0  0  0  0  0  0  0
   14.5712   -3.3430   -5.8759 C   0  0  0  0  0  0  0  0  0  0  0  0
   14.5183   -4.7869   -5.9884 C   0  0  0  0  0  0  0  0  0  0  0  0
   15.6409   -5.4572   -6.1527 C   0  0  0  0  0  0  0  0  0  0  0  0
   15.6256   -6.9554   -6.2733 C   0  0  1  0  0  0  0  0  0  0  0  0
   16.2005   -7.2760   -7.5084 O   0  0  0  0  0  0  0  0  0  0  0  0
   16.5964   -7.4487   -5.2025 C   0  0  0  0  0  0  0  0  0  0  0  0
   17.1078   -6.2239   -4.4419 C   0  0  1  0  0  0  0  0  0  0  0  0
   16.5129   -6.2435   -3.1623 O   0  0  0  0  0  0  0  0  0  0  0  0
   18.6126   -6.4615   -4.2701 C   0  0  0  0  0  0  0  0  0  0  0  0
   18.8783   -7.9071   -4.2786 C   0  0  0  0  0  0  0  0  0  0  0  0
   19.1612   -8.5051   -3.2294 O   0  0  0  0  0  0  0  0  0  0  0  0
   18.8144   -8.6277   -5.4823 O   0  0  0  0  0  1  0  0  0  0  0  0
   15.8448   -2.6754   -5.8465 C   0  0  0  0  0  0  0  0  0  0  0  0
   15.9465   -1.2607   -6.2620 C   0  0  0  0  0  0  0  0  0  0  0  0
   16.9169   -3.3203   -5.4494 C   0  0  0  0  0  0  0  0  0  0  0  0
   18.2408   -2.7332   -5.3860 C   0  0  0  0  0  0  0  0  0  0  0  0
   18.8149   -2.5259   -4.2150 C   0  0  0  0  0  0  0  0  0  0  0  0
   20.0481   -1.9760   -4.2342 F   0  0  0  0  0  0  0  0  0  0  0  0
   18.1213   -2.8856   -2.9581 C   0  0  2  0  0  0  0  0  0  0  0  0
   17.4380   -1.7411   -2.4337 N   0  0  0  0  0  0  0  0  0  0  0  0
   16.0142   -1.8293   -2.4150 C   0  0  0  0  0  0  0  0  0  0  0  0
   15.3120   -0.5185   -2.1220 C   0  0  0  0  0  0  0  0  0  0  0  0
   14.5735   -0.1334   -3.4120 C   0  0  0  0  0  0  0  0  0  0  0  0
   13.3539   -1.0342   -3.5518 C   0  0  0  0  0  0  0  0  0  0  0  0
   12.1518   -0.0792   -3.4992 C   0  0  1  0  0  0  0  0  0  0  0  0
   12.5030    1.2262   -4.1922 C   0  0  0  0  0  0  0  0  0  0  0  0
   10.9493   -0.7265   -4.1624 C   0  0  0  0  0  0  0  0  0  0  0  0
    9.6863   -0.4033   -3.4315 C   0  0  0  0  0  0  0  0  0  0  0  0
    8.4784   -0.6912   -4.2891 C   0  0  0  0  0  0  0  0  0  0  0  0
    8.6893   -0.4163   -5.7413 C   0  0  0  0  0  0  0  0  0  0  0  0
    7.7425   -1.1186   -6.5903 N   0  0  0  0  0  0  0  0  0  0  0  0
    6.2573   -0.2410   -6.7142 S   0  0  0  0  0  0  0  0  0  0  0  0
    5.0794   -1.1233   -6.2144 N   0  0  0  0  0  0  0  0  0  0  0  0
    5.3221   -2.4447   -5.7478 C   0  0  0  0  0  0  0  0  0  0  0  0
    4.9695   -3.4725   -6.7482 C   0  0  0  0  0  0  0  0  0  0  0  0
    5.7017   -4.3921   -6.9968 O   0  0  0  0  0  0  0  0  0  0  0  0
    3.6763   -3.3771   -7.4735 C   0  0  0  0  0  0  0  0  0  0  0  0
   19.0673   -3.4286   -2.0904 O   0  0  0  0  0  0  0  0  0  0  0  0
   20.3906   -3.6503   -2.3785 C   0  0  0  0  0  0  0  0  0  0  0  0
   21.3815   -3.0832   -1.7106 C   0  0  0  0  0  0  0  0  0  0  0  0
   21.1918   -2.1708   -0.6075 C   0  0  0  0  0  0  0  0  0  0  0  0
   21.3654   -0.9270   -0.7391 O   0  0  0  0  0  0  0  0  0  0  0  0
  1  2  1  0
  2  3  2  0
  3  4  1  0
  4  5  2  0
  5  6  1  0
  6  7  1  6
  6  8  1  0
  8  9  1  0
  9 10  1  1
  9 11  1  0
 11 12  1  0
 12 13  2  0
 12 14  1  0
  3 15  1  0
 15 16  1  0
 15 17  2  3
 17 18  1  0
 18 19  2  3
 19 20  1  0
 19 21  1  0
 21 22  1  1
 22 23  1  0
 23 24  1  0
 24 25  1  0
 25 26  1  0
 26 27  1  0
 27 28  1  6
 27 29  1  0
 29 30  1  0
 30 31  1  0
 31 32  1  0
 32 33  1  0
 33 34  1  0
 34 35  2  3
 35 36  1  0
 36 37  1  0
 37 38  2  0
 37 39  1  0
 21 40  1  0
 40 41  1  0
 41 42  2  3
 42 43  1  0
 43 44  2  0
M  CHG  1  14  -1
M  END
>  <docking_score>  (1) 
5.819

$$$$

     RDKit          3D

 44 43  0  0  0  0  0  0  0  0999 V2000
   11.1915   13.3084   12.2739 C   0  0  0  0  0  0  0  0  0  0  0  0
    9.9504   12.7522   11.6888 C   0  0  0  0  0  0  0  0  0  0  0  0
    8.8455   12.7671   12.4041 C   0  0  0  0  0  0  0  0  0  0  0  0
    8.8407   13.3189   13.7442 C   0  0  0  0  0  0  0  0  0  0  0  0
    7.7449   13.8958   14.1944 C   0  0  0  0  0  0  0  0  0  0  0  0
    7.7023   14.4795   15.5790 C   0  0  1  0  0  0  0  0  0  0  0  0
    8.6130   15.5418   15.6073 O   0  0  0  0  0  0  0  0  0  0  0  0
    6.3115   15.0977   15.7054 C   0  0  0  0  0  0  0  0  0  0  0  0
    5.2882   13.9966   15.4220 C   0  0  1  0  0  0  0  0  0  0  0  0
    5.9966   12.7810   15.3108 O   0  0  0  0  0  0  0  0  0  0  0  0
    4.4191   13.9264   16.6830 C   0  0  0  0  0  0  0  0  0  0  0  0
    4.2227   12.5187   17.0575 C   0  0  0  0  0  0  0  0  0  0  0  0
    3.1370   12.1308   17.5150 O   0  0  0  0  0  0  0  0  0  0  0  0
    5.2692   11.5956   16.9003 O   0  0  0  0  0  1  0  0  0  0  0  0
    7.6326   12.2289   11.8494 C   0  0  0  0  0  0  0  0  0  0  0  0
    7.4939   12.0771   10.3858 C   0  0  0  0  0  0  0  0  0  0  0  0
    6.6489   11.8705   12.6413 C   0  0  0  0  0  0  0  0  0  0  0  0
    5.3914   11.3196   12.1761 C   0  0  0  0  0  0  0  0  0  0  0  0
    4.5829   12.0554   11.4354 C   0  0  0  0  0  0  0  0  0  0  0  0
    3.4297   11.4755   11.0387 F   0  0  0  0  0  0  0  0  0  0  0  0
    4.9438   13.4439   11.0719 C   0  0  2  0  0  0  0  0  0  0  0  0
    4.9498   13.5888    9.6468 N   0  0  0  0  0  0  0  0  0  0  0  0
    4.7723   12.3833    8.9048 C   0  0  0  0  0  0  0  0  0  0  0  0
    4.1449   12.5784    7.5390 C   0  0  0  0  0  0  0  0  0  0  0  0
    4.4918   11.3218    6.7276 C   0  0  0  0  0  0  0  0  0  0  0  0
    3.7332   11.3799    5.4087 C   0  0  0  0  0  0  0  0  0  0  0  0
    4.8247   11.3950    4.3278 C   0  0  1  0  0  0  0  0  0  0  0  0
    5.9000   12.4018    4.6987 C   0  0  0  0  0  0  0  0  0  0  0  0
    5.4234   10.0077    4.1797 C   0  0  0  0  0  0  0  0  0  0  0  0
    6.3369    9.6859    5.3180 C   0  0  0  0  0  0  0  0  0  0  0  0
    6.3682    8.2001    5.5806 C   0  0  0  0  0  0  0  0  0  0  0  0
    5.3150    7.7323    6.5296 C   0  0  0  0  0  0  0  0  0  0  0  0
    3.9750    7.8339    5.9777 N   0  0  0  0  0  0  0  0  0  0  0  0
    3.6957    6.5931    4.8056 S   0  0  0  0  0  0  0  0  0  0  0  0
    3.1303    7.2181    3.4996 N   0  0  0  0  0  0  0  0  0  0  0  0
    2.9193    8.6216    3.4102 C   0  0  0  0  0  0  0  0  0  0  0  0
    2.4658    9.0422    2.0690 C   0  0  0  0  0  0  0  0  0  0  0  0
    2.2577   10.1953    1.8033 O   0  0  0  0  0  0  0  0  0  0  0  0
    2.2575    8.0199    1.0111 C   0  0  0  0  0  0  0  0  0  0  0  0
    6.1641   13.7388   11.6774 O   0  0  0  0  0  0  0  0  0  0  0  0
    6.4894   14.9170   12.3013 C   0  0  0  0  0  0  0  0  0  0  0  0
    5.6311   15.6106   13.0306 C   0  0  0  0  0  0  0  0  0  0  0  0
    4.2607   15.2150   13.2561 C   0  0  0  0  0  0  0  0  0  0  0  0
    3.3523   16.0654   13.4707 O   0  0  0  0  0  0  0  0  0  0  0  0
  1  2  1  0
  2  3  2  0
  3  4  1  0
  4  5  2  0
  5  6  1  0
  6  7  1  6
  6  8  1  0
  8  9  1  0
  9 10  1  1
  9 11  1  0
 11 12  1  0
 12 13  2  0
 12 14  1  0
  3 15  1  0
 15 16  1  0
 15 17  2  3
 17 18  1  0
 18 19  2  3
 19 20  1  0
 19 21  1  0
 21 22  1  6
 22 23  1  0
 23 24  1  0
 24 25  1  0
 25 26  1  0
 26 27  1  0
 27 28  1  1
 27 29  1  0
 29 30  1  0
 30 31  1  0
 31 32  1  0
 32 33  1  0
 33 34  1  0
 34 35  2  3
 35 36  1  0
 36 37  1  0
 37 38  2  0
 37 39  1  0
 21 40  1  0
 40 41  1  0
 41 42  2  3
 42 43  1  0
 43 44  2  0
M  CHG  1  14  -1
M  END
>  <docking_score>  (2) 
7.9889999999999999

$$$$
