
     RDKit          3D

 36 38  0  0  0  0  0  0  0  0999 V2000
    6.0361   15.2400    3.7581 C   0  0  0  0  0  0  0  0  0  0  0  0
    6.1729   14.1098    2.8269 C   0  0  1  0  0  0  0  0  0  0  0  0
    7.2807   14.4798    1.7977 C   0  0  0  0  0  0  0  0  0  0  0  0
    8.3829   15.0959    2.6398 C   0  0  2  0  0  0  0  0  0  0  0  0
    9.4605   15.3125    1.7788 O   0  0  0  0  0  0  0  0  0  0  0  0
    8.8209   14.2455    3.7625 C   0  0  2  0  0  0  0  0  0  0  0  0
    9.9302   13.4609    3.4806 O   0  0  0  0  0  0  0  0  0  0  0  0
    7.7739   13.4257    4.4526 C   0  0  1  0  0  0  0  0  0  0  0  0
    7.1393   14.1724    5.4642 O   0  0  0  0  0  0  0  0  0  0  0  0
    6.7109   12.8609    3.4729 C   0  0  1  0  0  0  0  0  0  0  0  0
    5.8213   12.0828    4.2581 N   0  0  0  0  0  0  0  0  0  0  0  0
    6.3145   11.0316    5.0418 C   0  0  0  0  0  3  0  0  0  0  0  0
    5.8512    9.7311    4.2880 C   0  0  2  0  0  0  0  0  0  0  0  0
    5.4769   10.1208    2.8899 C   0  0  0  0  0  0  0  0  0  0  0  0
    5.9630    9.6209    1.9080 O   0  0  0  0  0  0  0  0  0  0  0  0
    4.5897    9.4657    4.9235 O   0  0  0  0  0  0  0  0  0  0  0  0
    3.6464   10.2238    4.2307 C   0  0  1  0  0  0  0  0  0  0  0  0
    2.3951    9.5802    4.4077 O   0  0  0  0  0  0  0  0  0  0  0  0
    3.4838   11.5874    4.8089 C   0  0  2  0  0  0  0  0  0  0  0  0
    2.2635   12.1297    4.4475 O   0  0  0  0  0  0  0  0  0  0  0  0
    4.5566   12.5947    4.4559 C   0  0  1  0  0  0  0  0  0  0  0  0
    4.4550   13.5493    5.5503 O   0  0  0  0  0  0  0  0  0  0  0  0
    4.1420   12.6317    6.6673 C   0  0  0  0  0  0  0  0  0  0  0  0
    4.9684   13.0121    7.8186 C   0  0  0  0  0  0  0  0  0  0  0  0
    4.5012   14.0419    8.7860 C   0  0  2  0  0  0  0  0  0  0  0  0
    3.4216   14.7239    8.1980 O   0  0  0  0  0  0  0  0  0  0  0  0
    5.4885   15.2687    8.7499 O   0  0  0  0  0  0  0  0  0  0  0  0
    6.5101   14.4580    9.2062 O   0  0  0  0  0  0  0  0  0  0  0  0
    7.3962   15.2559    9.8950 C   0  0  2  0  0  0  0  0  0  0  0  0
    8.5923   15.4198    9.1274 O   0  0  0  0  0  0  0  0  0  0  0  0
    7.9773   14.0902   10.8960 C   0  0  2  0  0  0  0  0  0  0  0  0
    6.9242   13.1897   11.0856 O   0  0  0  0  0  0  0  0  0  0  0  0
    7.0722   12.6556   12.3055 N   0  0  0  0  0  0  0  0  0  0  0  0
    7.8785   13.4986   13.1392 C   0  0  0  0  0  0  0  0  0  0  0  0
    8.3098   14.6440   12.1979 C   0  0  1  0  0  0  0  0  0  0  0  0
    9.8659   14.7333   12.3692 C   0  0  0  0  0  2  0  0  0  0  0  0
  2  1  1  1
  2  3  1  0
  3  4  1  0
  4  5  1  6
  4  6  1  0
  6  7  1  6
  6  8  1  0
  8  9  1  1
  8 10  1  0
 10 11  1  1
 11 12  1  0
 12 13  1  0
 13 14  1  6
 14 15  2  0
 13 16  1  0
 16 17  1  0
 17 18  1  1
 17 19  1  0
 19 20  1  6
 19 21  1  0
 21 22  1  1
 22 23  1  0
 23 24  1  0
 24 25  1  0
 25 26  1  6
 25 27  1  0
 27 28  1  0
 28 29  1  0
 29 30  1  6
 29 31  1  0
 31 32  1  1
 32 33  1  0
 33 34  1  0
 34 35  1  0
 35 36  1  6
 10  2  1  0
 21 11  1  0
 35 31  1  0
M  RAD  2  12   2  36   3
M  END
>  <docking_score>  (1) 
-3.855

$$$$

     RDKit          3D

 36 38  0  0  0  0  0  0  0  0999 V2000
    2.3199   11.7238    5.4921 C   0  0  0  0  0  0  0  0  0  0  0  0
    3.7876   11.8159    5.4656 C   0  0  1  0  0  0  0  0  0  0  0  0
    4.1698   13.3056    5.7066 C   0  0  0  0  0  0  0  0  0  0  0  0
    3.2564   13.7482    6.8350 C   0  0  2  0  0  0  0  0  0  0  0  0
    3.6617   15.0375    7.1856 O   0  0  0  0  0  0  0  0  0  0  0  0
    3.3157   12.8793    8.0254 C   0  0  2  0  0  0  0  0  0  0  0  0
    4.1922   13.3205    9.0066 O   0  0  0  0  0  0  0  0  0  0  0  0
    3.4996   11.4104    7.7952 C   0  0  1  0  0  0  0  0  0  0  0  0
    2.2595   10.7776    7.5822 O   0  0  0  0  0  0  0  0  0  0  0  0
    4.4550   11.1028    6.6113 C   0  0  1  0  0  0  0  0  0  0  0  0
    4.5606    9.6894    6.5434 N   0  0  0  0  0  0  0  0  0  0  0  0
    5.4383    9.0954    5.6273 C   0  0  0  0  0  3  0  0  0  0  0  0
    4.4979    8.4894    4.5215 C   0  0  2  0  0  0  0  0  0  0  0  0
    3.1535    9.1380    4.6577 C   0  0  0  0  0  0  0  0  0  0  0  0
    2.2579    8.9831    3.8677 O   0  0  0  0  0  0  0  0  0  0  0  0
    4.2920    7.1569    5.0193 O   0  0  0  0  0  0  0  0  0  0  0  0
    3.2206    7.2427    5.9075 C   0  0  1  0  0  0  0  0  0  0  0  0
    2.6269    5.9557    5.9571 O   0  0  0  0  0  0  0  0  0  0  0  0
    3.6639    7.5361    7.2995 C   0  0  2  0  0  0  0  0  0  0  0  0
    2.6978    7.1513    8.2120 O   0  0  0  0  0  0  0  0  0  0  0  0
    4.0277    8.9750    7.5952 C   0  0  1  0  0  0  0  0  0  0  0  0
    4.9118    8.8396    8.7437 O   0  0  0  0  0  0  0  0  0  0  0  0
    3.9967    9.2594    9.8272 C   0  0  0  0  0  0  0  0  0  0  0  0
    4.3430    8.5061   11.0378 C   0  0  0  0  0  0  0  0  0  0  0  0
    4.0326    9.0481   12.3886 C   0  0  2  0  0  0  0  0  0  0  0  0
    2.8170    8.4806   12.8091 O   0  0  0  0  0  0  0  0  0  0  0  0
    3.4692   10.5114   12.2400 O   0  0  0  0  0  0  0  0  0  0  0  0
    3.7274   10.7450   13.5771 O   0  0  0  0  0  0  0  0  0  0  0  0
    3.3541   12.0419   13.8509 C   0  0  2  0  0  0  0  0  0  0  0  0
    4.5199   12.8411   14.0721 O   0  0  0  0  0  0  0  0  0  0  0  0
    2.9841   11.8125   15.4349 C   0  0  2  0  0  0  0  0  0  0  0  0
    3.1018   13.0676   16.0404 O   0  0  0  0  0  0  0  0  0  0  0  0
    3.4648   12.8626   17.3139 N   0  0  0  0  0  0  0  0  0  0  0  0
    4.0736   11.5740   17.4716 C   0  0  0  0  0  0  0  0  0  0  0  0
    3.9524   10.9351   16.0711 C   0  0  1  0  0  0  0  0  0  0  0  0
    3.3188    9.5248   16.3322 C   0  0  0  0  0  2  0  0  0  0  0  0
  2  1  1  1
  2  3  1  0
  3  4  1  0
  4  5  1  1
  4  6  1  0
  6  7  1  1
  6  8  1  0
  8  9  1  6
  8 10  1  0
 10 11  1  6
 11 12  1  0
 12 13  1  0
 13 14  1  1
 14 15  2  0
 13 16  1  0
 16 17  1  0
 17 18  1  1
 17 19  1  0
 19 20  1  1
 19 21  1  0
 21 22  1  1
 22 23  1  0
 23 24  1  0
 24 25  1  0
 25 26  1  6
 25 27  1  0
 27 28  1  0
 28 29  1  0
 29 30  1  1
 29 31  1  0
 31 32  1  1
 32 33  1  0
 33 34  1  0
 34 35  1  0
 35 36  1  1
 10  2  1  0
 21 11  1  0
 35 31  1  0
M  RAD  2  12   2  36   3
M  END
>  <docking_score>  (2) 
-1.347

$$$$
