
     RDKit          3D

 38 38  0  0  0  0  0  0  0  0999 V2000
    3.4646    6.9609    6.6525 C   0  0  0  0  0  0  0  0  0  0  0  0
    2.6560    6.3260    7.7448 C   0  0  1  0  0  0  0  0  0  0  0  0
    2.6967    4.8107    7.6344 C   0  0  0  0  0  0  0  0  0  0  0  0
    3.2974    6.6928    9.0767 C   0  0  0  0  0  0  0  0  0  0  0  0
    2.8968    8.0658    9.5354 C   0  0  0  0  0  0  0  0  0  0  0  0
    2.3257    8.0176   10.9457 C   0  0  0  0  0  0  0  0  0  0  0  0
    3.2358    8.7879   11.8604 C   0  0  1  0  0  0  0  0  0  0  0  0
    4.6549    8.3008   11.7287 C   0  0  0  0  0  0  0  0  0  0  0  0
    3.1638   10.2468   11.5130 C   0  0  0  0  0  3  0  0  0  0  0  0
    4.4769   10.9459   11.7815 C   0  0  0  0  0  3  0  0  0  0  0  0
    4.9627   11.6156   10.5031 C   0  0  0  0  0  0  0  0  0  0  0  0
    4.3065   12.8226   10.2861 O   0  0  0  0  0  0  0  0  0  0  0  0
    4.8237   13.8208   11.1221 C   0  0  0  0  0  0  0  0  0  0  0  0
    5.9997   14.4500   10.3865 C   0  0  0  0  0  0  0  0  0  0  0  0
    5.6018   14.6006    8.9419 C   0  0  0  0  0  0  0  0  0  0  0  0
    6.8812   14.7504    8.1274 C   0  0  0  0  0  0  0  0  0  0  0  0
    6.7156   15.8444    7.0999 C   0  0  1  0  0  0  0  0  0  0  0  0
    7.7666   16.9776    7.4211 B   0  0  0  0  0  0  0  0  0  0  0  0
    6.8986   15.3620    5.8023 O   0  0  0  0  0  0  0  0  0  0  0  0
    6.9268   13.9631    5.8746 C   0  0  0  0  0  0  0  0  0  0  0  0
    7.4297   13.3934    4.5671 C   0  0  0  0  0  0  0  0  0  0  0  0
    6.4157   13.5952    3.4530 C   0  0  0  0  0  0  0  0  0  0  0  0
    6.4004   12.3789    2.5551 C   0  0  2  0  0  0  0  0  0  0  0  0
    7.6274   11.6085    2.7553 N   0  0  0  0  0  1  0  0  0  0  0  0
    6.2880   12.7471    1.1076 C   0  0  0  0  0  0  0  0  0  0  0  0
    5.2621   11.4948    3.0221 C   0  0  0  0  0  0  0  0  0  0  0  0
    5.7411   10.8309    4.3129 C   0  0  0  0  0  0  0  0  0  0  0  0
    5.9434    9.3530    3.9617 C   0  0  0  0  0  0  0  0  0  0  0  0
    4.8792    8.6685    4.5058 O   0  0  0  0  0  0  0  0  0  0  0  0
    4.4967    7.5594    3.7470 C   0  0  1  0  0  0  0  0  0  0  0  0
    4.3155    7.8968    2.3450 N   0  0  0  0  0  1  0  0  0  0  0  0
    5.5432    6.6469    3.8109 O   0  0  0  0  0  1  0  0  0  0  0  0
    3.2658    7.0665    4.2814 N   0  0  0  0  0  3  0  0  0  0  0  0
    2.2813    6.7226    3.3101 C   0  0  0  0  0  0  0  0  0  0  0  0
    3.4023    6.1489    5.3636 C   0  0  1  0  0  0  0  0  0  0  0  0
    4.5890    5.3438    5.3128 N   0  0  0  0  0  2  0  0  0  0  0  0
    4.7911    4.6351    6.5156 N   0  0  0  0  0  1  0  0  0  0  0  0
    2.2613    5.2625    5.3869 N   0  0  0  0  0  1  0  0  0  0  0  0
  1  2  1  0
  2  3  1  6
  2  4  1  0
  4  5  1  0
  5  6  1  0
  6  7  1  0
  7  8  1  6
  7  9  1  0
  9 10  1  0
 10 11  1  0
 11 12  1  0
 12 13  1  0
 13 14  1  0
 14 15  1  0
 15 16  1  0
 16 17  1  0
 17 18  1  1
 17 19  1  0
 19 20  1  0
 20 21  1  0
 21 22  1  0
 22 23  1  0
 23 24  1  0
 23 25  1  6
 23 26  1  0
 26 27  1  0
 27 28  1  0
 28 29  1  0
 29 30  1  0
 30 31  1  6
 30 32  1  0
 30 33  1  0
 33 34  1  0
 33 35  1  0
 35 36  1  0
 36 37  1  0
 35 38  1  1
 35  1  1  0
M  RAD  8   9   2  10   2  24   2  31   2  33   2  36   3  37   2  38   2
M  CHG  7  24   1  31   1  32  -1  33   1  36   1  37   1  38   1
M  END
>  <docking_score>  (1) 
-1.4099999999999999

$$$$
