
     RDKit          3D

 16 15  0  0  0  0  0  0  0  0999 V2000
   16.8812   -7.8708   -5.6010 C   0  0  0  0  0  0  0  0  0  0  0  0
   16.0905   -6.5995   -5.2303 C   0  0  0  0  0  0  0  0  0  0  0  0
   14.7996   -7.1494   -4.6154 C   0  0  0  0  0  0  0  0  0  0  0  0
   15.6821   -5.9768   -6.5298 C   0  0  0  0  0  0  0  0  0  0  0  0
   16.7972   -5.7638   -4.2586 C   0  0  0  0  0  0  0  0  0  0  0  0
   16.1222   -4.9217   -3.3173 C   0  0  0  0  0  0  0  0  0  0  0  0
   16.1691   -3.4798   -3.4616 C   0  0  0  0  0  0  0  0  0  0  0  0
   15.4139   -2.8477   -4.3479 C   0  0  0  0  0  0  0  0  0  0  0  0
   17.0618   -2.6107   -2.6290 C   0  0  0  0  0  0  0  0  0  0  0  0
   16.1751   -1.5368   -1.9872 C   0  0  0  0  0  0  0  0  0  0  0  0
   17.6059   -3.4334   -1.4962 C   0  0  0  0  0  0  0  0  0  0  0  0
   18.1001   -1.9126   -3.4377 C   0  0  0  0  0  0  0  0  0  0  0  0
   19.3944   -2.4184   -3.0573 N   0  0  0  0  0  0  0  0  0  0  0  0
   19.9672   -3.5991   -3.6842 C   0  0  0  0  0  0  0  0  0  0  0  0
   20.1866   -1.7917   -2.0464 C   0  0  0  0  0  0  0  0  0  0  0  0
   19.8285   -0.7541   -1.4408 O   0  0  0  0  0  0  0  0  0  0  0  0
  1  2  1  0
  2  3  1  0
  2  4  1  0
  2  5  1  0
  5  6  1  0
  6  7  1  0
  7  8  2  0
  7  9  1  0
  9 10  1  0
  9 11  1  0
  9 12  1  0
 12 13  1  0
 13 14  1  0
 13 15  1  0
 15 16  2  0
M  END
>  <docking_score>  (1) 
-3.7290000000000001

$$$$

     RDKit          3D

 16 15  0  0  0  0  0  0  0  0999 V2000
   16.1017   -6.2593   -6.2821 C   0  0  0  0  0  0  0  0  0  0  0  0
   17.2549   -6.6968   -5.3561 C   0  0  0  0  0  0  0  0  0  0  0  0
   18.5015   -6.1438   -6.0539 C   0  0  0  0  0  0  0  0  0  0  0  0
   17.3471   -8.1857   -5.4909 C   0  0  0  0  0  0  0  0  0  0  0  0
   17.1371   -6.1336   -4.0104 C   0  0  0  0  0  0  0  0  0  0  0  0
   16.1879   -5.1164   -3.6711 C   0  0  0  0  0  0  0  0  0  0  0  0
   16.5945   -3.9723   -2.8786 C   0  0  0  0  0  0  0  0  0  0  0  0
   16.8555   -4.0841   -1.5844 C   0  0  0  0  0  0  0  0  0  0  0  0
   16.7490   -2.5990   -3.4578 C   0  0  0  0  0  0  0  0  0  0  0  0
   17.8072   -1.8719   -2.6193 C   0  0  0  0  0  0  0  0  0  0  0  0
   17.3268   -2.7264   -4.8384 C   0  0  0  0  0  0  0  0  0  0  0  0
   15.4927   -1.8014   -3.3868 C   0  0  0  0  0  0  0  0  0  0  0  0
   14.9023   -1.7579   -4.7002 N   0  0  0  0  0  0  0  0  0  0  0  0
   14.1623   -2.8864   -5.2426 C   0  0  0  0  0  0  0  0  0  0  0  0
   15.0092   -0.6082   -5.5423 C   0  0  0  0  0  0  0  0  0  0  0  0
   14.0208    0.0790   -5.8920 O   0  0  0  0  0  0  0  0  0  0  0  0
  1  2  1  0
  2  3  1  0
  2  4  1  0
  2  5  1  0
  5  6  1  0
  6  7  1  0
  7  8  2  0
  7  9  1  0
  9 10  1  0
  9 11  1  0
  9 12  1  0
 12 13  1  0
 13 14  1  0
 13 15  1  0
 15 16  2  0
M  END
>  <docking_score>  (2) 
-3.6659999999999999

$$$$

     RDKit          3D

 16 15  0  0  0  0  0  0  0  0999 V2000
    3.9096    9.3676    5.4567 C   0  0  0  0  0  0  0  0  0  0  0  0
    5.2092    8.8858    4.7802 C   0  0  0  0  0  0  0  0  0  0  0  0
    4.8997    9.0100    3.2850 C   0  0  0  0  0  0  0  0  0  0  0  0
    5.2922    7.4150    5.0515 C   0  0  0  0  0  0  0  0  0  0  0  0
    6.3631    9.7161    5.1283 C   0  0  0  0  0  0  0  0  0  0  0  0
    6.8406   10.7770    4.2935 C   0  0  0  0  0  0  0  0  0  0  0  0
    6.3905   12.1379    4.5118 C   0  0  0  0  0  0  0  0  0  0  0  0
    6.1756   12.6089    5.7314 C   0  0  0  0  0  0  0  0  0  0  0  0
    6.1407   13.0987    3.3894 C   0  0  0  0  0  0  0  0  0  0  0  0
    6.7703   12.4937    2.1288 C   0  0  0  0  0  0  0  0  0  0  0  0
    4.6621   13.1550    3.1306 C   0  0  0  0  0  0  0  0  0  0  0  0
    6.7772   14.4262    3.6176 C   0  0  0  0  0  0  0  0  0  0  0  0
    8.1100   14.3957    3.0713 N   0  0  0  0  0  0  0  0  0  0  0  0
    9.1891   13.6772    3.7304 C   0  0  0  0  0  0  0  0  0  0  0  0
    8.4470   15.0670    1.8555 C   0  0  0  0  0  0  0  0  0  0  0  0
    9.5987   15.0506    1.3607 O   0  0  0  0  0  0  0  0  0  0  0  0
  1  2  1  0
  2  3  1  0
  2  4  1  0
  2  5  1  0
  5  6  1  0
  6  7  1  0
  7  8  2  0
  7  9  1  0
  9 10  1  0
  9 11  1  0
  9 12  1  0
 12 13  1  0
 13 14  1  0
 13 15  1  0
 15 16  2  0
M  END
>  <docking_score>  (3) 
-3.6299999999999999

$$$$
