
     RDKit          3D

 79 81  0  0  0  0  0  0  0  0999 V2000
   21.3431    7.6250   -0.1960 C   0  0  0  0  0  0  0  0  0  0  0  0
   20.7352    8.8241   -0.8444 C   0  0  1  0  0  0  0  0  0  0  0  0
   20.2082    8.5914   -2.2231 C   0  0  0  0  0  0  0  0  0  0  0  0
   19.1739    9.6172   -2.5647 C   0  0  2  0  0  0  0  0  0  0  0  0
   19.1085    9.7411   -3.9647 O   0  0  0  0  0  0  0  0  0  0  0  0
   19.5122   10.9893   -2.0237 C   0  0  2  0  0  0  0  0  0  0  0  0
   20.6192   11.5556   -2.6499 O   0  0  0  0  0  0  0  0  0  0  0  0
   19.6636   10.9867   -0.5275 C   0  0  1  0  0  0  0  0  0  0  0  0
   18.6143   11.6139    0.1242 O   0  0  0  0  0  0  0  0  0  0  0  0
   19.8129    9.6001    0.0372 C   0  0  1  0  0  0  0  0  0  0  0  0
   18.5051    9.0193    0.1830 N   0  0  0  0  0  0  0  0  0  0  0  0
   18.2295    8.0356   -0.8578 C   0  0  0  0  0  3  0  0  0  0  0  0
   19.2611    6.9421   -0.6826 C   0  0  0  0  0  0  0  0  0  0  0  0
   19.4027    6.0819   -1.9253 C   0  0  1  0  0  0  0  0  0  0  0  0
   19.6675    6.9896   -2.9765 O   0  0  0  0  0  0  0  0  0  0  0  0
   20.6391    5.1908   -1.8174 C   0  0  0  0  0  0  0  0  0  0  0  0
   20.2604    3.8562   -1.7272 O   0  0  0  0  0  0  0  0  0  0  0  0
   18.9729    3.5964   -2.1243 C   0  0  0  0  0  3  0  0  0  0  0  0
   18.8311    3.2570   -3.5700 C   0  0  1  0  0  0  0  0  0  0  0  0
   18.1707    4.2970   -4.4080 C   0  0  0  0  0  0  0  0  0  0  0  0
   20.1473    2.8417   -4.1500 C   0  0  2  0  0  0  0  0  0  0  0  0
   20.2421    3.2421   -5.4822 O   0  0  0  0  0  0  0  0  0  0  0  0
   20.3414    1.3328   -4.0259 C   0  0  0  0  0  3  0  0  0  0  0  0
   19.1133    0.6956   -4.1900 O   0  0  0  0  0  0  0  0  0  0  0  0
   18.6798    0.8830   -5.4970 C   0  0  0  0  0  3  0  0  0  0  0  0
   17.3731    0.3923   -5.6649 O   0  0  0  0  0  0  0  0  0  0  0  0
   16.7754    0.3138   -4.5091 O   0  0  0  0  0  0  0  0  0  0  0  0
   15.5333    0.7290   -4.5212 O   0  0  0  0  0  0  0  0  0  0  0  0
   15.2370    1.4161   -5.6746 C   0  0  2  0  0  0  0  0  0  0  0  0
   16.2842    2.8236   -5.9206 Cl  0  0  0  0  0  0  0  0  0  0  0  0
   13.8541    1.8989   -5.7153 N   0  0  0  0  0  0  0  0  0  0  0  0
   13.0437    0.7426   -5.2973 C   0  0  0  0  0  3  0  0  0  0  0  0
   13.9706   -0.4651   -5.3878 C   0  0  2  0  0  0  0  0  0  0  0  0
   14.1462   -0.8901   -6.8340 C   0  0  0  0  0  2  0  0  0  0  0  0
   13.3699   -1.6049   -4.5766 C   0  0  0  0  0  0  0  0  0  0  0  0
   11.9561   -1.7042   -4.9501 N   0  0  0  0  0  0  0  0  0  0  0  0
   11.2157   -1.1975   -3.8172 C   0  0  1  0  0  0  0  0  0  0  0  0
   11.8089   -0.1610   -2.9409 C   0  0  0  0  0  3  0  0  0  0  0  0
   10.7198    0.2437   -3.8309 C   0  0  2  0  0  0  0  0  0  0  0  0
    9.3975    0.3900   -3.3772 O   0  0  0  0  0  0  0  0  0  0  0  0
    9.3071    1.2332   -2.2803 C   0  0  0  0  0  0  0  0  0  0  0  0
    9.2029    2.5289   -2.7549 O   0  0  0  0  0  0  0  0  0  0  0  0
   10.2814    3.2537   -2.3015 C   0  0  0  0  0  3  0  0  0  0  0  0
    9.9515    4.5224   -1.5960 C   0  0  0  0  0  0  0  0  0  0  0  0
    8.8249    4.4511   -0.6227 C   0  0  0  0  0  3  0  0  0  0  0  0
    7.5918    4.1672   -1.1507 O   0  0  0  0  0  0  0  0  0  0  0  0
    6.7625    5.2442   -1.3452 C   0  0  0  0  0  3  0  0  0  0  0  0
    6.6373    6.1397   -0.2383 N   0  0  0  0  0  0  0  0  0  0  0  0
    7.5889    5.8671    0.7930 C   0  0  0  0  0  0  0  0  0  0  0  0
    7.3091    6.5566    2.0844 C   0  0  1  0  0  0  0  0  0  0  0  0
    8.1711    7.6174    2.2980 O   0  0  0  0  0  0  0  0  0  0  0  0
    5.8809    7.0307    2.2066 C   0  0  0  0  0  3  0  0  0  0  0  0
    5.1263    6.9436    0.8976 C   0  0  0  0  0  0  0  0  0  0  0  0
    3.7755    6.6486    1.0958 O   0  0  0  0  0  0  0  0  0  0  0  0
    3.1492    7.6511    1.8239 C   0  0  1  0  0  0  0  0  0  0  0  0
    2.3198    8.5434    0.9222 C   0  0  0  0  0  2  0  0  0  0  0  0
    2.3044    7.0467    2.7696 O   0  0  0  0  0  0  0  0  0  0  0  0
    3.0000    6.3656    3.6886 N   0  0  0  0  0  0  0  0  0  0  0  0
    3.0015    7.0207    4.9300 N   0  0  0  0  0  0  0  0  0  0  0  0
    4.3601    7.3435    5.3496 C   0  0  2  0  0  0  0  0  0  0  0  0
    5.1011    6.2003    5.6240 O   0  0  0  0  0  0  0  0  0  0  0  0
    4.2313    8.2018    6.5944 C   0  0  0  0  0  0  0  0  0  0  0  0
    3.4265    9.4247    6.1883 C   0  0  2  0  0  0  0  0  0  0  0  0
    3.5898    9.6778    4.8250 O   0  0  0  0  0  0  0  0  0  0  0  0
    3.9083   10.5834    7.0366 C   0  0  0  0  0  3  0  0  0  0  0  0
    3.2291   11.7624    6.7549 O   0  0  0  0  0  0  0  0  0  0  0  0
    2.7807   11.8141    5.4449 C   0  0  0  0  0  0  0  0  0  0  0  0
    3.3800   12.9995    4.6913 C   0  0  2  0  0  0  0  0  0  0  0  0
    2.6554   14.1341    5.0687 O   0  0  0  0  0  0  0  0  0  0  0  0
    3.3016   12.7499    3.3318 O   0  0  0  0  0  0  0  0  0  0  0  0
    4.5761   12.8415    2.7703 C   0  0  0  0  0  0  0  0  0  0  0  0
    4.6330   12.0689    1.6242 O   0  0  0  0  0  0  0  0  0  0  0  0
    5.6968   12.4557    0.8690 N   0  0  0  0  0  0  0  0  0  0  0  0
    6.6195   11.3403    0.7627 C   0  0  2  0  0  0  0  0  0  0  0  0
    7.0453   11.2062   -0.6799 C   0  0  0  0  0  2  0  0  0  0  0  0
    5.9606   10.1286    1.2027 N   0  0  0  0  0  0  0  0  0  0  0  0
    6.7605    9.4527    2.1368 N   0  0  0  0  0  0  0  0  0  0  0  0
    7.7853    8.6669    1.4831 C   0  0  1  0  0  0  0  0  0  0  0  0
    9.0200    9.4844    1.1782 C   0  0  0  0  0  2  0  0  0  0  0  0
  2  1  1  1
  2  3  1  0
  3  4  1  0
  4  5  1  6
  4  6  1  0
  6  7  1  6
  6  8  1  0
  8  9  1  1
  8 10  1  0
 10 11  1  6
 11 12  1  0
 12 13  1  0
 13 14  1  0
 14 15  1  6
 14 16  1  0
 16 17  1  0
 17 18  1  0
 18 19  1  0
 19 20  1  6
 19 21  1  0
 21 22  1  6
 21 23  1  0
 23 24  1  0
 24 25  1  0
 25 26  1  0
 26 27  1  0
 27 28  1  0
 28 29  1  0
 29 30  1  1
 29 31  1  0
 31 32  1  0
 32 33  1  0
 33 34  1  6
 33 35  1  0
 35 36  1  0
 37 36  1  6
 37 38  1  0
 37 39  1  0
 39 40  1  1
 40 41  1  0
 41 42  1  0
 42 43  1  0
 43 44  1  0
 44 45  1  0
 45 46  1  0
 46 47  1  0
 47 48  1  0
 48 49  1  0
 50 49  1  6
 50 51  1  0
 50 52  1  0
 52 53  1  0
 53 54  1  0
 54 55  1  0
 55 56  1  6
 55 57  1  0
 57 58  1  0
 58 59  1  0
 59 60  1  0
 60 61  1  1
 60 62  1  0
 62 63  1  0
 63 64  1  6
 63 65  1  0
 65 66  1  0
 66 67  1  0
 67 68  1  0
 68 69  1  6
 68 70  1  0
 70 71  1  0
 71 72  1  0
 72 73  1  0
 73 74  1  0
 74 75  1  6
 74 76  1  0
 76 77  1  0
 77 78  1  0
 78 79  1  1
 10  2  1  0
 39 38  1  0
 78 51  1  0
M  RAD  8  12   2  18   2  23   2  25   2  32   2  34   3  38   2  43   2
M  RAD  7  45   2  47   2  52   2  56   3  65   2  75   3  79   3
M  END
>  <docking_score>  (1) 
69.781000000000006

$$$$
