
     RDKit          3D

 12 11  0  0  0  0  0  0  0  0999 V2000
   15.8593   -1.3210   -1.9143 C   0  0  0  0  0  0  0  0  0  0  0  0
   16.7661   -1.8403   -2.8387 O   0  0  0  0  0  0  0  0  0  0  0  0
   16.2922   -3.0286   -3.3697 C   0  0  0  0  0  3  0  0  0  0  0  0
   15.1864   -2.7482   -4.1552 O   0  0  0  0  0  0  0  0  0  0  0  0
   15.5622   -2.4344   -5.4688 C   0  0  2  0  0  0  0  0  0  0  0  0
   15.0107   -1.0844   -5.8469 C   0  0  0  0  0  0  0  0  0  0  0  0
   14.9542   -3.4775   -6.4006 C   0  0  0  0  0  3  0  0  0  0  0  0
   13.9717   -4.1861   -5.6269 N   0  0  0  0  0  0  0  0  0  0  0  0
   13.9554   -5.6057   -5.8644 C   0  0  0  0  0  3  0  0  0  0  0  0
   15.4124   -6.0353   -5.9946 C   0  0  0  0  0  0  0  0  0  0  0  0
   15.6318   -7.0705   -4.8972 C   0  0  0  0  0  2  0  0  0  0  0  0
   14.3664   -7.2779   -4.3255 O   0  0  0  0  0  0  0  0  0  0  0  0
  1  2  1  0
  2  3  1  0
  3  4  1  0
  4  5  1  0
  5  6  1  6
  5  7  1  0
  7  8  1  0
  8  9  1  0
  9 10  1  0
 10 11  1  0
 11 12  1  0
M  RAD  4   3   2   7   2   9   2  11   3
M  END
>  <docking_score>  (1) 
-2.9649999999999999

$$$$

     RDKit          3D

 12 11  0  0  0  0  0  0  0  0999 V2000
   13.8336   -0.2183   -4.2078 C   0  0  0  0  0  0  0  0  0  0  0  0
   14.6908   -1.1421   -3.6091 O   0  0  0  0  0  0  0  0  0  0  0  0
   15.0775   -2.1092   -4.5221 C   0  0  0  0  0  3  0  0  0  0  0  0
   16.2565   -2.6851   -4.0786 O   0  0  0  0  0  0  0  0  0  0  0  0
   16.4686   -2.4254   -2.7174 C   0  0  2  0  0  0  0  0  0  0  0  0
   17.7843   -1.7148   -2.5342 C   0  0  0  0  0  0  0  0  0  0  0  0
   16.5394   -3.7600   -1.9828 C   0  0  0  0  0  3  0  0  0  0  0  0
   16.7489   -4.7642   -2.9897 N   0  0  0  0  0  0  0  0  0  0  0  0
   17.8654   -5.6329   -2.7234 C   0  0  0  0  0  3  0  0  0  0  0  0
   18.4448   -6.0146   -4.0809 C   0  0  0  0  0  0  0  0  0  0  0  0
   17.3442   -6.7970   -4.7885 C   0  0  0  0  0  2  0  0  0  0  0  0
   18.0100   -7.7923   -5.5213 O   0  0  0  0  0  0  0  0  0  0  0  0
  1  2  1  0
  2  3  1  0
  3  4  1  0
  4  5  1  0
  5  6  1  6
  5  7  1  0
  7  8  1  0
  8  9  1  0
  9 10  1  0
 10 11  1  0
 11 12  1  0
M  RAD  4   3   2   7   2   9   2  11   3
M  END
>  <docking_score>  (2) 
-2.863

$$$$

     RDKit          3D

 12 11  0  0  0  0  0  0  0  0999 V2000
   13.9077    0.0559   -5.2537 C   0  0  0  0  0  0  0  0  0  0  0  0
   13.8114   -1.1698   -4.5942 O   0  0  0  0  0  0  0  0  0  0  0  0
   14.9506   -1.9280   -4.8087 C   0  0  0  0  0  3  0  0  0  0  0  0
   14.6611   -2.8972   -5.7549 O   0  0  0  0  0  0  0  0  0  0  0  0
   15.3083   -4.1052   -5.4598 C   0  0  2  0  0  0  0  0  0  0  0  0
   14.3377   -5.2491   -5.5980 C   0  0  0  0  0  0  0  0  0  0  0  0
   15.7810   -4.0513   -4.0109 C   0  0  0  0  0  3  0  0  0  0  0  0
   16.5515   -5.2450   -3.7930 N   0  0  0  0  0  0  0  0  0  0  0  0
   17.2969   -5.2412   -2.5616 C   0  0  0  0  0  3  0  0  0  0  0  0
   18.7483   -5.5167   -2.9381 C   0  0  0  0  0  0  0  0  0  0  0  0
   19.5649   -4.4453   -2.2245 C   0  0  0  0  0  2  0  0  0  0  0  0
   18.6204   -3.5553   -1.6889 O   0  0  0  0  0  0  0  0  0  0  0  0
  1  2  1  0
  2  3  1  0
  3  4  1  0
  4  5  1  0
  5  6  1  1
  5  7  1  0
  7  8  1  0
  8  9  1  0
  9 10  1  0
 10 11  1  0
 11 12  1  0
M  RAD  4   3   2   7   2   9   2  11   3
M  END
>  <docking_score>  (3) 
-2.742

$$$$
