
     RDKit          3D

  9  8  0  0  0  0  0  0  0  0999 V2000
   15.6679   -1.8987   -6.6416 C   0  0  0  0  0  0  0  0  0  0  0  0
   14.6606   -2.1725   -5.7160 O   0  0  0  0  0  0  0  0  0  0  0  0
   15.1475   -2.8591   -4.6159 C   0  0  0  0  0  3  0  0  0  0  0  0
   15.3145   -2.0586   -3.5075 O   0  0  0  0  0  0  0  0  0  0  0  0
   16.4018   -2.5133   -2.7618 C   0  0  2  0  0  0  0  0  0  0  0  0
   17.6917   -1.8778   -3.2236 C   0  0  0  0  0  0  0  0  0  0  0  0
   18.4751   -1.4324   -2.1674 O   0  0  0  0  0  0  0  0  0  0  0  0
   16.4438   -4.0147   -2.9351 C   0  0  0  0  0  3  0  0  0  0  0  0
   16.2665   -4.5892   -1.6871 O   0  0  0  0  0  0  0  0  0  0  0  0
  1  2  1  0
  2  3  1  0
  3  4  1  0
  4  5  1  0
  5  6  1  6
  6  7  1  0
  5  8  1  0
  8  9  1  0
M  RAD  2   3   2   8   2
M  END
>  <docking_score>  (1) 
-2.5870000000000002

$$$$

     RDKit          3D

  9  8  0  0  0  0  0  0  0  0999 V2000
   19.4893    9.3306   -0.9446 C   0  0  0  0  0  0  0  0  0  0  0  0
   19.0600    8.4938   -1.9750 O   0  0  0  0  0  0  0  0  0  0  0  0
   20.0940    7.7152   -2.4683 C   0  0  0  0  0  3  0  0  0  0  0  0
   19.6598    6.5533   -3.0673 O   0  0  0  0  0  0  0  0  0  0  0  0
   19.8932    6.6197   -4.4406 C   0  0  2  0  0  0  0  0  0  0  0  0
   18.6729    6.2055   -5.2281 C   0  0  0  0  0  0  0  0  0  0  0  0
   18.9377    5.1746   -6.1197 O   0  0  0  0  0  0  0  0  0  0  0  0
   21.0596    5.7001   -4.7231 C   0  0  0  0  0  3  0  0  0  0  0  0
   21.1311    4.7789   -3.6910 O   0  0  0  0  0  0  0  0  0  0  0  0
  1  2  1  0
  2  3  1  0
  3  4  1  0
  4  5  1  0
  5  6  1  6
  6  7  1  0
  5  8  1  0
  8  9  1  0
M  RAD  2   3   2   8   2
M  END
>  <docking_score>  (2) 
-2.5499999999999998

$$$$
