
     RDKit          3D

 56 55  0  0  0  0  0  0  0  0999 V2000
    2.2576    8.3347    6.0291 C   0  0  0  0  0  0  0  0  0  0  0  0
    3.2785    7.3293    6.5348 C   0  0  0  0  0  0  0  0  0  0  0  0
    3.1069    7.0645    8.0064 C   0  0  0  0  0  0  0  0  0  0  0  0
    3.0935    6.0474    5.7600 C   0  0  0  0  0  0  0  0  0  0  0  0
    4.3885    5.7745    5.0006 C   0  0  0  0  0  0  0  0  0  0  0  0
    5.1923    7.0476    4.9190 C   0  0  0  0  0  3  0  0  0  0  0  0
    4.9179    7.8915    6.1376 C   0  0  1  0  0  0  0  0  0  0  0  0
    5.0862    7.1060    7.4272 C   0  0  0  0  0  0  0  0  0  0  0  0
    5.7580    9.1370    6.1624 C   0  0  0  0  0  0  0  0  0  0  0  0
    4.8775   10.3557    6.0981 C   0  0  0  0  0  0  0  0  0  0  0  0
    3.9046   10.3822    7.2582 C   0  0  0  0  0  0  0  0  0  0  0  0
    4.6823   10.5978    8.5355 C   0  0  2  0  0  0  0  0  0  0  0  0
    3.9836    9.7957    9.6213 C   0  0  0  0  0  2  0  0  0  0  0  0
    4.5719   12.0651    8.9458 C   0  0  0  0  0  3  0  0  0  0  0  0
    5.0320   12.9853    7.8698 C   0  0  0  0  0  0  0  0  0  0  0  0
    5.9174   14.0840    8.3269 C   0  0  1  0  0  0  0  0  0  0  0  0
    6.2714   13.9647    9.7576 C   0  0  0  0  0  2  0  0  0  0  0  0
    7.0072   14.4698    7.3893 C   0  0  1  0  0  0  0  0  0  0  0  0
    7.7479   13.3025    6.7748 C   0  0  0  0  0  3  0  0  0  0  0  0
    7.1065   13.0008    5.4401 C   0  0  0  0  0  0  0  0  0  0  0  0
    7.0840   11.5107    5.1782 C   0  0  0  0  0  0  0  0  0  0  0  0
    8.3657   10.8136    5.4531 C   0  0  0  0  0  0  0  0  0  0  0  0
    8.7197    9.7269    4.4703 C   0  0  0  0  0  0  0  0  0  0  0  0
    8.8931    8.3905    5.1709 C   0  0  2  0  0  0  0  0  0  0  0  0
    7.7305    7.4840    4.8291 C   0  0  0  0  0  0  0  0  0  0  0  0
    8.8540    8.6346    6.6614 C   0  0  0  0  0  3  0  0  0  0  0  0
   10.1399    8.1368    7.3069 C   0  0  0  0  0  2  0  0  0  0  0  0
    6.3164   15.2832    6.2725 C   0  0  0  0  0  0  0  0  0  0  0  0
    5.0827   15.8822    6.9176 C   0  0  0  0  0  3  0  0  0  0  0  0
    3.8878   15.8772    6.0373 C   0  0  0  0  0  3  0  0  0  0  0  0
    3.3333   14.5519    5.6637 C   0  0  0  0  0  0  0  0  0  0  0  0
    4.2398   13.6490    4.9003 C   0  0  0  0  0  3  0  0  0  0  0  0
    4.4847   14.0588    3.4855 C   0  0  0  0  0  0  0  0  0  0  0  0
    5.9631   13.9083    3.1899 C   0  0  0  0  0  0  0  0  0  0  0  0
    6.2275   14.1374    1.7894 N   0  0  0  0  0  0  0  0  0  0  0  0
    5.6650   13.1224    0.9304 C   0  0  0  0  0  3  0  0  0  0  0  0
    6.6702   11.9808    0.8895 C   0  0  0  0  0  0  0  0  0  0  0  0
    6.3152   10.9047    1.9281 C   0  0  0  0  0  0  0  0  0  0  0  0
    7.5830   10.3916    2.5558 C   0  0  0  0  0  0  0  0  0  0  0  0
    8.6769   11.3926    2.3549 C   0  0  0  0  0  0  0  0  0  0  0  0
    9.8863   10.6950    1.7986 C   0  0  0  0  0  0  0  0  0  0  0  0
   10.1300    9.3665    2.4466 C   0  0  0  0  0  3  0  0  0  0  0  0
   10.5758    8.3954    1.3411 C   0  0  0  0  0  0  0  0  0  0  0  0
    9.5238    7.4883    0.9860 N   0  0  0  0  0  0  0  0  0  0  0  0
   10.0844    6.5170    0.0586 C   0  0  0  0  0  0  0  0  0  0  0  0
    9.0750    5.4265   -0.1428 C   0  0  0  0  0  0  0  0  0  0  0  0
    8.0177    5.4576    0.5896 N   0  0  0  0  0  3  0  0  0  0  0  0
    6.8000    4.2210    0.4092 S   0  0  0  0  0  0  0  0  0  0  0  0
    5.8601    4.5616   -1.1096 C   0  0  0  0  0  3  0  0  0  0  0  0
    6.6251    4.0222   -2.3210 C   0  0  0  0  0  0  0  0  0  0  0  0
    5.6346    3.7059   -3.4255 C   0  0  0  0  0  3  0  0  0  0  0  0
    6.2981    2.8186   -4.4423 C   0  0  0  0  0  3  0  0  0  0  0  0
    5.3393    2.4733   -5.5378 C   0  0  0  0  0  3  0  0  0  0  0  0
    6.0367    2.0548   -6.7990 C   0  0  0  0  0  0  0  0  0  0  0  0
    5.2674    0.9953   -7.5334 C   0  0  0  0  0  0  0  0  0  0  0  0
    6.2075   -0.1013   -7.9822 C   0  0  0  0  0  2  0  0  0  0  0  0
  1  2  1  0
  2  3  1  0
  2  4  1  0
  4  5  1  0
  5  6  1  0
  6  7  1  0
  7  8  1  1
  7  9  1  0
  9 10  1  0
 10 11  1  0
 11 12  1  0
 12 13  1  1
 12 14  1  0
 14 15  1  0
 15 16  1  0
 16 17  1  1
 16 18  1  0
 18 19  1  6
 19 20  1  0
 20 21  1  0
 21 22  1  0
 22 23  1  0
 23 24  1  0
 24 25  1  6
 24 26  1  0
 26 27  1  0
 18 28  1  0
 28 29  1  0
 29 30  1  0
 30 31  1  0
 31 32  1  0
 32 33  1  0
 33 34  1  0
 34 35  1  0
 35 36  1  0
 36 37  1  0
 37 38  1  0
 38 39  1  0
 39 40  1  0
 40 41  1  0
 41 42  1  0
 42 43  1  0
 43 44  1  0
 44 45  1  0
 45 46  1  0
 46 47  2  3
 47 48  1  0
 48 49  1  0
 49 50  1  0
 50 51  1  0
 51 52  1  0
 52 53  1  0
 53 54  1  0
 54 55  1  0
 55 56  1  0
M  RAD  8   6   2  13   3  14   2  17   3  19   2  26   2  27   3  29   2
M  RAD  8  30   2  32   2  36   2  42   2  47   2  49   2  51   2  52   2
M  CHG  1  47   1
M  RAD  2  53   2  56   3
M  END
>  <docking_score>  (1) 
31.460000000000001

$$$$
