
     RDKit          3D

 27 29  0  0  0  0  0  0  0  0999 V2000
   14.3301   -6.4181   -4.4231 O   0  0  0  0  0  0  0  0  0  0  0  0
   15.3173   -5.8429   -5.0020 C   0  0  0  0  0  0  0  0  0  0  0  0
   15.9619   -6.6093   -6.0263 N   0  0  0  0  0  0  0  0  0  0  0  0
   16.3526   -6.0455   -7.3171 C   0  0  0  0  0  0  0  0  0  0  0  0
   16.8629   -4.6685   -7.1521 C   0  0  0  0  0  0  0  0  0  0  0  0
   16.0113   -3.6171   -7.2719 C   0  0  0  0  0  0  0  0  0  0  0  0
   16.4772   -2.3429   -7.0580 C   0  0  0  0  0  0  0  0  0  0  0  0
   17.8039   -2.1323   -6.7230 C   0  0  0  0  0  0  0  0  0  0  0  0
   18.3401   -0.9014   -6.4886 O   0  0  0  0  0  0  0  0  0  0  0  0
   18.6738   -3.2174   -6.6049 C   0  0  0  0  0  0  0  0  0  0  0  0
   18.1742   -4.4862   -6.8267 C   0  0  0  0  0  0  0  0  0  0  0  0
   15.6909   -4.5222   -4.5988 C   0  0  0  0  0  0  0  0  0  0  0  0
   16.7062   -4.1050   -3.9117 C   0  0  0  0  0  0  0  0  0  0  0  0
   16.8295   -2.3574   -3.6132 S   0  0  1  0  0  0  0  0  0  0  0  0
   16.2620   -2.2408   -2.0965 C   0  0  0  0  0  0  0  0  0  0  0  0
   17.1924   -2.7663   -1.0794 C   0  0  0  0  0  0  0  0  0  0  0  0
   18.3147   -3.3053   -1.4681 C   0  0  0  0  0  0  0  0  0  0  0  0
   19.0527   -2.7038   -2.3730 C   0  0  0  0  0  0  0  0  0  0  0  0
   20.9522   -2.8347   -2.2825 Br  0  0  0  0  0  0  0  0  0  0  0  0
   18.3683   -1.9275   -3.4427 C   0  0  0  0  0  0  0  0  0  0  0  0
   19.0294   -0.9269   -4.1744 C   0  0  0  0  0  0  0  0  0  0  0  0
   19.0507   -0.4839   -5.3789 C   0  0  0  0  0  0  0  0  0  0  0  0
   20.1699    0.9075   -5.7353 S   0  0  0  0  0  0  0  0  0  0  0  0
   19.3150    2.4225   -5.9766 C   0  0  0  0  0  0  0  0  0  0  0  0
   19.9139    3.5748   -5.7311 C   0  0  0  0  0  0  0  0  0  0  0  0
   21.3188    3.5739   -5.2485 C   0  0  0  0  0  0  0  0  0  0  0  0
   21.3804    2.9912   -3.5553 Cl  0  0  0  0  0  0  0  0  0  0  0  0
  1  2  2  0
  2  3  1  0
  3  4  1  0
  4  5  1  0
  5  6  2  0
  6  7  1  0
  7  8  2  0
  8  9  1  0
  8 10  1  0
 10 11  2  0
  2 12  1  0
 12 13  2  3
 14 13  1  1
 14 15  2  0
 15 16  1  0
 16 17  2  0
 17 18  2  0
 18 19  1  0
 18 20  1  0
 20 21  1  0
 21 22  2  3
 22 23  1  0
 23 24  1  0
 24 25  2  3
 25 26  1  0
 26 27  1  0
 11  5  1  0
 22  9  1  0
 14 20  2  0
M  END
>  <docking_score>  (1) 
-3.9420000000000002

$$$$

     RDKit          3D

 27 29  0  0  0  0  0  0  0  0999 V2000
   20.2088   -8.6941   -5.9229 O   0  0  0  0  0  0  0  0  0  0  0  0
   19.7124   -7.6920   -5.2983 C   0  0  0  0  0  0  0  0  0  0  0  0
   19.7407   -7.7821   -3.8690 N   0  0  0  0  0  0  0  0  0  0  0  0
   20.1356   -6.6691   -3.0077 C   0  0  0  0  0  0  0  0  0  0  0  0
   19.6273   -5.3890   -3.5434 C   0  0  0  0  0  0  0  0  0  0  0  0
   20.4081   -4.6506   -4.3742 C   0  0  0  0  0  0  0  0  0  0  0  0
   19.9090   -3.4922   -4.9177 C   0  0  0  0  0  0  0  0  0  0  0  0
   18.6208   -3.0808   -4.6210 C   0  0  0  0  0  0  0  0  0  0  0  0
   18.0517   -1.9494   -5.1246 O   0  0  0  0  0  0  0  0  0  0  0  0
   17.8255   -3.8431   -3.7640 C   0  0  0  0  0  0  0  0  0  0  0  0
   18.3570   -5.0028   -3.2336 C   0  0  0  0  0  0  0  0  0  0  0  0
   19.1853   -6.5931   -6.0472 C   0  0  0  0  0  0  0  0  0  0  0  0
   17.9618   -6.2250   -6.2581 C   0  0  0  0  0  0  0  0  0  0  0  0
   17.7034   -4.7781   -7.2571 S   0  0  1  0  0  0  0  0  0  0  0  0
   17.3339   -5.4324   -8.6964 C   0  0  0  0  0  0  0  0  0  0  0  0
   15.9925   -6.0449   -8.7360 C   0  0  0  0  0  0  0  0  0  0  0  0
   15.2719   -6.0586   -7.6489 C   0  0  0  0  0  0  0  0  0  0  0  0
   15.1638   -4.9716   -6.9195 C   0  0  0  0  0  0  0  0  0  0  0  0
   13.5330   -4.6072   -6.0025 Br  0  0  0  0  0  0  0  0  0  0  0  0
   16.3314   -4.0516   -6.8430 C   0  0  0  0  0  0  0  0  0  0  0  0
   16.1933   -2.7044   -6.4694 C   0  0  0  0  0  0  0  0  0  0  0  0
   16.8470   -1.8317   -5.7920 C   0  0  0  0  0  0  0  0  0  0  0  0
   16.1218   -0.1667   -5.6587 S   0  0  0  0  0  0  0  0  0  0  0  0
   14.3915   -0.1533   -5.9591 C   0  0  0  0  0  0  0  0  0  0  0  0
   13.5404   -0.0019   -4.9593 C   0  0  0  0  0  0  0  0  0  0  0  0
   14.0642    0.1568   -3.5783 C   0  0  0  0  0  0  0  0  0  0  0  0
   14.9629   -1.3161   -3.0952 Cl  0  0  0  0  0  0  0  0  0  0  0  0
  1  2  2  0
  2  3  1  0
  3  4  1  0
  4  5  1  0
  5  6  2  0
  6  7  1  0
  7  8  2  0
  8  9  1  0
  8 10  1  0
 10 11  2  0
  2 12  1  0
 12 13  2  3
 14 13  1  1
 14 15  2  0
 15 16  1  0
 16 17  2  0
 17 18  2  0
 18 19  1  0
 18 20  1  0
 20 21  1  0
 21 22  2  3
 22 23  1  0
 23 24  1  0
 24 25  2  3
 25 26  1  0
 26 27  1  0
 11  5  1  0
 22  9  1  0
 14 20  2  0
M  END
>  <docking_score>  (2) 
-3.1190000000000002

$$$$

     RDKit          3D

 27 29  0  0  0  0  0  0  0  0999 V2000
    2.2579    7.8721    8.5462 O   0  0  0  0  0  0  0  0  0  0  0  0
    3.1240    8.5655    7.9061 C   0  0  0  0  0  0  0  0  0  0  0  0
    4.1681    7.8152    7.2746 N   0  0  0  0  0  0  0  0  0  0  0  0
    4.6311    8.0826    5.9141 C   0  0  0  0  0  0  0  0  0  0  0  0
    4.6569    9.5361    5.6481 C   0  0  0  0  0  0  0  0  0  0  0  0
    3.5729   10.1372    5.0925 C   0  0  0  0  0  0  0  0  0  0  0  0
    3.5782   11.4974    4.9029 C   0  0  0  0  0  0  0  0  0  0  0  0
    4.6794   12.2494    5.2750 C   0  0  0  0  0  0  0  0  0  0  0  0
    4.7589   13.6019    5.1263 O   0  0  0  0  0  0  0  0  0  0  0  0
    5.7910   11.6243    5.8424 C   0  0  0  0  0  0  0  0  0  0  0  0
    5.7544   10.2547    6.0194 C   0  0  0  0  0  0  0  0  0  0  0  0
    2.9899    9.9892    7.8685 C   0  0  0  0  0  0  0  0  0  0  0  0
    3.6658   10.9168    8.4682 C   0  0  0  0  0  0  0  0  0  0  0  0
    3.1921   12.6021    8.1620 S   0  0  1  0  0  0  0  0  0  0  0  0
    2.3127   12.9431    9.4835 C   0  0  0  0  0  0  0  0  0  0  0  0
    3.1246   13.0966   10.7056 C   0  0  0  0  0  0  0  0  0  0  0  0
    4.4122   12.9005   10.6374 C   0  0  0  0  0  0  0  0  0  0  0  0
    5.1066   13.4353    9.6591 C   0  0  0  0  0  0  0  0  0  0  0  0
    6.8946   14.0148    9.9761 Br  0  0  0  0  0  0  0  0  0  0  0  0
    4.4589   13.5766    8.3264 C   0  0  0  0  0  0  0  0  0  0  0  0
    4.9255   14.4896    7.3659 C   0  0  0  0  0  0  0  0  0  0  0  0
    5.0630   14.5441    6.0909 C   0  0  0  0  0  0  0  0  0  0  0  0
    5.7598   16.0747    5.3928 S   0  0  0  0  0  0  0  0  0  0  0  0
    6.5738   15.8128    3.8588 C   0  0  0  0  0  0  0  0  0  0  0  0
    7.8051   15.3335    3.8285 C   0  0  0  0  0  0  0  0  0  0  0  0
    8.4929   15.0188    5.1070 C   0  0  0  0  0  0  0  0  0  0  0  0
   10.2544   14.8514    4.8254 Cl  0  0  0  0  0  0  0  0  0  0  0  0
  1  2  2  0
  2  3  1  0
  3  4  1  0
  4  5  1  0
  5  6  2  0
  6  7  1  0
  7  8  2  0
  8  9  1  0
  8 10  1  0
 10 11  2  0
  2 12  1  0
 12 13  2  3
 14 13  1  1
 14 15  2  0
 15 16  1  0
 16 17  2  0
 17 18  2  0
 18 19  1  0
 18 20  1  0
 20 21  1  0
 21 22  2  3
 22 23  1  0
 23 24  1  0
 24 25  2  3
 25 26  1  0
 26 27  1  0
 11  5  1  0
 22  9  1  0
 14 20  2  0
M  END
>  <docking_score>  (3) 
-2.9369999999999998

$$$$
