
     RDKit          3D

 23 24  0  0  0  0  0  0  0  0999 V2000
   15.7055   -2.1503   -7.5601 C   0  0  0  0  0  0  0  0  0  0  0  0
   16.4386   -1.5917   -6.3572 C   0  0  1  0  0  0  0  0  0  0  0  0
   15.5514   -0.5049   -5.7629 C   0  0  0  0  0  0  0  0  0  0  0  0
   14.3785   -1.2395   -5.1397 C   0  0  2  0  0  0  0  0  0  0  0  0
   13.3169   -0.3834   -4.8789 O   0  0  0  0  0  0  0  0  0  0  0  0
   14.8844   -1.8780   -3.8612 C   0  0  2  0  0  0  0  0  0  0  0  0
   14.9402   -0.8681   -2.9008 O   0  0  0  0  0  0  0  0  0  0  0  0
   16.2412   -2.4636   -4.0122 C   0  0  1  0  0  0  0  0  0  0  0  0
   16.2845   -3.6873   -3.3333 O   0  0  0  0  0  0  0  0  0  0  0  0
   16.7176   -2.7005   -5.4034 C   0  0  1  0  0  0  0  0  0  0  0  0
   16.4212   -4.0037   -5.9223 N   0  0  0  0  0  0  0  0  0  0  0  0
   17.6418   -4.7974   -5.8578 C   0  0  1  0  0  0  0  0  0  0  0  0
   17.3866   -6.1568   -5.1987 C   0  0  0  0  0  0  0  0  0  0  0  0
   18.6713   -6.6572   -4.5568 C   0  0  2  0  0  0  0  0  0  0  0  0
   18.6742   -8.0478   -4.4217 O   0  0  0  0  0  0  0  0  0  0  0  0
   18.8494   -6.0251   -3.1967 C   0  0  0  0  0  0  0  0  0  0  0  0
   19.7318   -6.2564   -5.3666 O   0  0  0  0  0  0  0  0  0  0  0  0
   19.7399   -6.8819   -6.6102 C   0  0  1  0  0  0  0  0  0  0  0  0
   19.7196   -8.2862   -6.4792 O   0  0  0  0  0  0  0  0  0  0  0  0
   18.5649   -6.4791   -7.4670 C   0  0  1  0  0  0  0  0  0  0  0  0
   17.4710   -7.3178   -7.2753 O   0  0  0  0  0  0  0  0  0  0  0  0
   18.1678   -5.0316   -7.2503 C   0  0  1  0  0  0  0  0  0  0  0  0
   17.1176   -4.7930   -8.1515 O   0  0  0  0  0  0  0  0  0  0  0  0
  2  1  1  6
  2  3  1  0
  3  4  1  0
  4  5  1  1
  4  6  1  0
  6  7  1  1
  6  8  1  0
  8  9  1  1
  8 10  1  0
 10 11  1  6
 12 11  1  6
 12 13  1  0
 13 14  1  0
 14 15  1  0
 14 16  1  1
 14 17  1  0
 17 18  1  0
 18 19  1  1
 18 20  1  0
 20 21  1  1
 20 22  1  0
 22 23  1  6
 10  2  1  0
 22 12  1  0
M  END
>  <docking_score>  (1) 
-5.0750000000000002

$$$$

     RDKit          3D

 23 24  0  0  0  0  0  0  0  0999 V2000
   16.0499   -7.8444   -5.3050 C   0  0  0  0  0  0  0  0  0  0  0  0
   17.4196   -7.2031   -5.4016 C   0  0  1  0  0  0  0  0  0  0  0  0
   18.3870   -8.2901   -5.8531 C   0  0  0  0  0  0  0  0  0  0  0  0
   18.0338   -8.5658   -7.3033 C   0  0  2  0  0  0  0  0  0  0  0  0
   18.5747   -9.7662   -7.7440 O   0  0  0  0  0  0  0  0  0  0  0  0
   18.5648   -7.4026   -8.1175 C   0  0  2  0  0  0  0  0  0  0  0  0
   19.9361   -7.6088   -8.2684 O   0  0  0  0  0  0  0  0  0  0  0  0
   18.3536   -6.0928   -7.4492 C   0  0  1  0  0  0  0  0  0  0  0  0
   17.9654   -5.1515   -8.4103 O   0  0  0  0  0  0  0  0  0  0  0  0
   17.3507   -6.0563   -6.3487 C   0  0  1  0  0  0  0  0  0  0  0  0
   16.0195   -5.7235   -6.7646 N   0  0  0  0  0  0  0  0  0  0  0  0
   15.5533   -4.6240   -5.9293 C   0  0  1  0  0  0  0  0  0  0  0  0
   16.7272   -3.8047   -5.3830 C   0  0  0  0  0  0  0  0  0  0  0  0
   16.3196   -3.1472   -4.0737 C   0  0  2  0  0  0  0  0  0  0  0  0
   17.0872   -2.0112   -3.8046 O   0  0  0  0  0  0  0  0  0  0  0  0
   16.4675   -4.1283   -2.9350 C   0  0  0  0  0  0  0  0  0  0  0  0
   14.9748   -2.7982   -4.1771 O   0  0  0  0  0  0  0  0  0  0  0  0
   14.7378   -1.7979   -5.1159 C   0  0  1  0  0  0  0  0  0  0  0  0
   15.5277   -0.6573   -4.8618 O   0  0  0  0  0  0  0  0  0  0  0  0
   15.0192   -2.2518   -6.5272 C   0  0  1  0  0  0  0  0  0  0  0  0
   16.3388   -2.0091   -6.8971 O   0  0  0  0  0  0  0  0  0  0  0  0
   14.6688   -3.7120   -6.7396 C   0  0  1  0  0  0  0  0  0  0  0  0
   14.9226   -3.9637   -8.0977 O   0  0  0  0  0  0  0  0  0  0  0  0
  2  1  1  6
  2  3  1  0
  3  4  1  0
  4  5  1  6
  4  6  1  0
  6  7  1  1
  6  8  1  0
  8  9  1  6
  8 10  1  0
 10 11  1  6
 12 11  1  6
 12 13  1  0
 13 14  1  0
 14 15  1  0
 14 16  1  1
 14 17  1  0
 17 18  1  0
 18 19  1  1
 18 20  1  0
 20 21  1  1
 20 22  1  0
 22 23  1  6
 10  2  1  0
 22 12  1  0
M  END
>  <docking_score>  (2) 
-4.5810000000000004

$$$$

     RDKit          3D

 23 24  0  0  0  0  0  0  0  0999 V2000
   19.3493   -5.1709   -2.5328 C   0  0  0  0  0  0  0  0  0  0  0  0
   19.7994   -5.1873   -3.9797 C   0  0  1  0  0  0  0  0  0  0  0  0
   20.9187   -6.2156   -4.0839 C   0  0  0  0  0  0  0  0  0  0  0  0
   20.2423   -7.5644   -3.9195 C   0  0  2  0  0  0  0  0  0  0  0  0
   21.1592   -8.5668   -3.6324 O   0  0  0  0  0  0  0  0  0  0  0  0
   19.5123   -7.8550   -5.2159 C   0  0  2  0  0  0  0  0  0  0  0  0
   20.4713   -8.2926   -6.1293 O   0  0  0  0  0  0  0  0  0  0  0  0
   18.8390   -6.6545   -5.7749 C   0  0  1  0  0  0  0  0  0  0  0  0
   17.5859   -7.0295   -6.2743 O   0  0  0  0  0  0  0  0  0  0  0  0
   18.6318   -5.5091   -4.8456 C   0  0  1  0  0  0  0  0  0  0  0  0
   17.3777   -5.5232   -4.1508 N   0  0  0  0  0  0  0  0  0  0  0  0
   16.8322   -4.1722   -4.1883 C   0  0  1  0  0  0  0  0  0  0  0  0
   17.4298   -3.3635   -5.3444 C   0  0  0  0  0  0  0  0  0  0  0  0
   17.3938   -1.8831   -4.9982 C   0  0  2  0  0  0  0  0  0  0  0  0
   17.4065   -1.0837   -6.1440 O   0  0  0  0  0  0  0  0  0  0  0  0
   18.5772   -1.5267   -4.1301 C   0  0  0  0  0  0  0  0  0  0  0  0
   16.2306   -1.6483   -4.2681 O   0  0  0  0  0  0  0  0  0  0  0  0
   15.0689   -1.8227   -5.0153 C   0  0  1  0  0  0  0  0  0  0  0  0
   15.0873   -1.0348   -6.1851 O   0  0  0  0  0  0  0  0  0  0  0  0
   14.8569   -3.2588   -5.4266 C   0  0  1  0  0  0  0  0  0  0  0  0
   15.4496   -3.5401   -6.6541 O   0  0  0  0  0  0  0  0  0  0  0  0
   15.3376   -4.2343   -4.3696 C   0  0  1  0  0  0  0  0  0  0  0  0
   15.0179   -5.5091   -4.8641 O   0  0  0  0  0  0  0  0  0  0  0  0
  2  1  1  1
  2  3  1  0
  3  4  1  0
  4  5  1  6
  4  6  1  0
  6  7  1  6
  6  8  1  0
  8  9  1  1
  8 10  1  0
 10 11  1  1
 12 11  1  6
 12 13  1  0
 13 14  1  0
 14 15  1  0
 14 16  1  1
 14 17  1  0
 17 18  1  0
 18 19  1  6
 18 20  1  0
 20 21  1  6
 20 22  1  0
 22 23  1  6
 10  2  1  0
 22 12  1  0
M  END
>  <docking_score>  (3) 
-4.5270000000000001

$$$$
