
     RDKit          3D

 23 24  0  0  0  0  0  0  0  0999 V2000
   16.2008   -2.3271   -7.9527 C   0  0  0  0  0  0  0  0  0  0  0  0
   16.4717   -2.0117   -6.4761 C   0  0  1  0  0  0  0  0  0  0  0  0
   15.8124   -0.7291   -6.0809 C   0  0  0  0  0  0  0  0  0  0  0  0
   14.4110   -0.9428   -5.5432 C   0  0  2  0  0  0  0  0  0  0  0  0
   13.8034    0.2578   -5.2843 O   0  0  0  0  0  0  0  0  0  0  0  0
   14.6086   -1.7838   -4.2742 C   0  0  2  0  0  0  0  0  0  0  0  0
   15.7305   -1.2117   -3.6312 O   0  0  0  0  0  0  0  0  0  0  0  0
   15.0295   -3.1487   -4.7484 C   0  0  1  0  0  0  0  0  0  0  0  0
   13.9333   -3.7478   -5.3736 O   0  0  0  0  0  0  0  0  0  0  0  0
   16.2091   -3.1742   -5.6226 C   0  0  1  0  0  0  0  0  0  0  0  0
   16.2219   -4.4643   -6.4165 C   0  0  0  0  0  3  0  0  0  0  0  0
   17.2858   -5.4234   -5.9382 C   0  0  1  0  0  0  0  0  0  0  0  0
   18.4393   -4.7195   -5.3529 C   0  0  0  0  0  0  0  0  0  0  0  0
   19.0098   -5.2599   -4.1124 C   0  0  0  0  0  0  0  0  0  0  0  0
   18.5153   -4.5085   -3.0225 O   0  0  0  0  0  0  0  0  0  0  0  0
   20.3994   -5.0096   -4.1175 O   0  0  0  0  0  0  0  0  0  0  0  0
   18.8131   -6.5749   -3.8480 O   0  0  0  0  0  0  0  0  0  0  0  0
   18.8781   -7.4077   -4.9595 C   0  0  1  0  0  0  0  0  0  0  0  0
   19.5259   -8.6193   -4.6720 O   0  0  0  0  0  0  0  0  0  0  0  0
   17.4413   -7.7524   -5.3044 C   0  0  2  0  0  0  0  0  0  0  0  0
   17.3725   -8.0577   -6.6619 O   0  0  0  0  0  0  0  0  0  0  0  0
   16.6572   -6.4730   -5.0832 C   0  0  1  0  0  0  0  0  0  0  0  0
   16.5679   -6.1308   -3.7419 O   0  0  0  0  0  0  0  0  0  0  0  0
  2  1  1  6
  2  3  1  0
  3  4  1  0
  4  5  1  1
  4  6  1  0
  6  7  1  1
  6  8  1  0
  8  9  1  6
  8 10  1  0
 10 11  1  6
 12 11  1  1
 12 13  1  0
 13 14  1  0
 14 15  1  0
 14 16  1  0
 14 17  1  0
 17 18  1  0
 18 19  1  1
 18 20  1  0
 20 21  1  6
 20 22  1  0
 22 23  1  1
 10  2  1  0
 22 12  1  0
M  RAD  1  11   2
M  END
>  <docking_score>  (1) 
-5.2800000000000002

$$$$

     RDKit          3D

 23 24  0  0  0  0  0  0  0  0999 V2000
   16.3477   -2.0403   -2.4941 C   0  0  0  0  0  0  0  0  0  0  0  0
   15.7182   -2.6553   -3.7506 C   0  0  1  0  0  0  0  0  0  0  0  0
   14.7403   -1.7079   -4.3686 C   0  0  0  0  0  0  0  0  0  0  0  0
   15.3843   -0.8100   -5.4068 C   0  0  2  0  0  0  0  0  0  0  0  0
   14.4831    0.1077   -5.8792 O   0  0  0  0  0  0  0  0  0  0  0  0
   15.8683   -1.7714   -6.5015 C   0  0  2  0  0  0  0  0  0  0  0  0
   14.8144   -2.7006   -6.6598 O   0  0  0  0  0  0  0  0  0  0  0  0
   17.0252   -2.5251   -5.9029 C   0  0  1  0  0  0  0  0  0  0  0  0
   18.0909   -1.6348   -5.7512 O   0  0  0  0  0  0  0  0  0  0  0  0
   16.7381   -3.2180   -4.6405 C   0  0  1  0  0  0  0  0  0  0  0  0
   18.0350   -3.4861   -3.9049 C   0  0  0  0  0  3  0  0  0  0  0  0
   18.4682   -4.9289   -4.0101 C   0  0  1  0  0  0  0  0  0  0  0  0
   17.3646   -5.8059   -4.4362 C   0  0  0  0  0  0  0  0  0  0  0  0
   17.6609   -6.8348   -5.4411 C   0  0  0  0  0  0  0  0  0  0  0  0
   17.2370   -6.3672   -6.7055 O   0  0  0  0  0  0  0  0  0  0  0  0
   16.8425   -7.9561   -5.1824 O   0  0  0  0  0  0  0  0  0  0  0  0
   18.9440   -7.2583   -5.5513 O   0  0  0  0  0  0  0  0  0  0  0  0
   19.6235   -7.3752   -4.3440 C   0  0  1  0  0  0  0  0  0  0  0  0
   20.4545   -8.5062   -4.3152 O   0  0  0  0  0  0  0  0  0  0  0  0
   20.5330   -6.1636   -4.2604 C   0  0  2  0  0  0  0  0  0  0  0  0
   20.7827   -5.8886   -2.9177 O   0  0  0  0  0  0  0  0  0  0  0  0
   19.7196   -5.0117   -4.8193 C   0  0  1  0  0  0  0  0  0  0  0  0
   19.5032   -5.1286   -6.1846 O   0  0  0  0  0  0  0  0  0  0  0  0
  2  1  1  1
  2  3  1  0
  3  4  1  0
  4  5  1  6
  4  6  1  0
  6  7  1  1
  6  8  1  0
  8  9  1  1
  8 10  1  0
 10 11  1  1
 12 11  1  6
 12 13  1  0
 13 14  1  0
 14 15  1  0
 14 16  1  0
 14 17  1  0
 17 18  1  0
 18 19  1  6
 18 20  1  0
 20 21  1  1
 20 22  1  0
 22 23  1  6
 10  2  1  0
 22 12  1  0
M  RAD  1  11   2
M  END
>  <docking_score>  (2) 
-4.6820000000000004

$$$$

     RDKit          3D

 23 24  0  0  0  0  0  0  0  0999 V2000
    5.7828   15.0492    5.0272 C   0  0  0  0  0  0  0  0  0  0  0  0
    5.9902   14.6126    3.5714 C   0  0  1  0  0  0  0  0  0  0  0  0
    6.9936   15.4910    2.8949 C   0  0  0  0  0  0  0  0  0  0  0  0
    8.4063   14.9545    3.0187 C   0  0  2  0  0  0  0  0  0  0  0  0
    9.3069   15.8320    2.4742 O   0  0  0  0  0  0  0  0  0  0  0  0
    8.3756   13.6116    2.2755 C   0  0  2  0  0  0  0  0  0  0  0  0
    7.6178   13.8607    1.1079 O   0  0  0  0  0  0  0  0  0  0  0  0
    7.5572   12.6860    3.1348 C   0  0  1  0  0  0  0  0  0  0  0  0
    8.2898   12.4064    4.2908 O   0  0  0  0  0  0  0  0  0  0  0  0
    6.2112   13.1670    3.4715 C   0  0  1  0  0  0  0  0  0  0  0  0
    5.7072   12.4386    4.7005 C   0  0  0  0  0  3  0  0  0  0  0  0
    5.4040   10.9853    4.4237 C   0  0  1  0  0  0  0  0  0  0  0  0
    5.2402   10.2106    5.6654 C   0  0  0  0  0  0  0  0  0  0  0  0
    4.1336    9.2472    5.7266 C   0  0  0  0  0  0  0  0  0  0  0  0
    3.0603    9.8358    6.4327 O   0  0  0  0  0  0  0  0  0  0  0  0
    4.5367    8.1593    6.5316 O   0  0  0  0  0  0  0  0  0  0  0  0
    3.6567    8.7588    4.5553 O   0  0  0  0  0  0  0  0  0  0  0  0
    4.6270    8.5086    3.5915 C   0  0  1  0  0  0  0  0  0  0  0  0
    4.3637    7.3319    2.8729 O   0  0  0  0  0  0  0  0  0  0  0  0
    4.5337    9.6544    2.6012 C   0  0  2  0  0  0  0  0  0  0  0  0
    5.7731    9.8090    1.9843 O   0  0  0  0  0  0  0  0  0  0  0  0
    4.2838   10.8921    3.4418 C   0  0  1  0  0  0  0  0  0  0  0  0
    3.0231   10.8947    4.0204 O   0  0  0  0  0  0  0  0  0  0  0  0
  2  1  1  1
  2  3  1  0
  3  4  1  0
  4  5  1  6
  4  6  1  0
  6  7  1  6
  6  8  1  0
  8  9  1  1
  8 10  1  0
 10 11  1  1
 12 11  1  1
 12 13  1  0
 13 14  1  0
 14 15  1  0
 14 16  1  0
 14 17  1  0
 17 18  1  0
 18 19  1  6
 18 20  1  0
 20 21  1  1
 20 22  1  0
 22 23  1  1
 10  2  1  0
 22 12  1  0
M  RAD  1  11   2
M  END
>  <docking_score>  (3) 
-4.6200000000000001

$$$$
