
     RDKit          3D

 28 33  0  0  0  0  0  0  0  0999 V2000
   16.1729   -1.8800   -3.3762 C   0  0  0  0  0  0  0  0  0  0  0  0
   14.8515   -1.5419   -3.6617 O   0  0  0  0  0  0  0  0  0  0  0  0
   14.2466   -1.7092   -4.9146 C   0  0  0  0  0  0  0  0  0  0  0  0
   14.8907   -1.6889   -6.0917 C   0  0  0  0  0  0  0  0  0  0  0  0
   16.3489   -1.4853   -6.2480 C   0  0  0  0  0  0  0  0  0  0  0  0
   17.3427   -1.8875   -5.4440 C   0  0  0  0  0  0  0  0  0  0  0  0
   18.4783   -1.3494   -6.2034 C   0  0  0  0  0  0  0  0  0  0  0  0
   19.6849   -1.1569   -5.6894 C   0  0  0  0  0  0  0  0  0  0  0  0
   20.3063   -1.9697   -4.6411 C   0  0  0  0  0  0  0  0  0  0  0  0
   19.6529   -2.6439   -3.7061 C   0  0  0  0  0  0  0  0  0  0  0  0
   20.6263   -3.4232   -2.9851 N   0  0  0  0  0  0  0  0  0  0  0  0
   20.2946   -4.7048   -2.3796 C   0  0  0  0  0  0  0  0  0  0  0  0
   21.0366   -5.8257   -3.0720 C   0  0  0  0  0  0  0  0  0  0  0  0
   20.0383   -6.7631   -3.7194 C   0  0  0  0  0  0  0  0  0  0  0  0
   19.6339   -6.1959   -5.0279 C   0  0  2  0  0  0  0  0  0  0  0  0
   18.6895   -5.0653   -4.9358 C   0  0  0  0  0  0  0  0  0  0  0  0
   17.3863   -4.9825   -5.0686 C   0  0  0  0  0  0  0  0  0  0  0  0
   16.5646   -5.9394   -5.8990 C   0  0  2  0  0  0  0  0  0  0  0  0
   15.8850   -6.9057   -5.0811 N   0  0  0  0  0  0  0  0  0  0  0  0
   16.9739   -7.3440   -5.5354 C   0  0  0  0  0  0  0  0  0  0  0  0
   19.3721   -7.1501   -6.1138 C   0  0  0  0  0  0  0  0  0  0  0  0
   18.1979   -8.0457   -5.9561 C   0  0  2  0  0  0  0  0  0  0  0  0
   17.9560   -8.7673   -7.2697 C   0  0  0  0  0  0  0  0  0  0  0  0
   18.2858   -2.7525   -3.2927 C   0  0  1  0  0  0  0  0  0  0  0  0
   17.9332   -2.0734   -2.0348 C   0  0  0  0  0  0  0  0  0  0  0  0
   16.7422   -1.5570   -2.2503 C   0  0  0  0  0  0  0  0  0  0  0  0
   17.1828   -2.6327   -4.2151 C   0  0  1  0  0  0  0  0  0  0  0  0
   16.5023   -3.9880   -4.4628 C   0  0  0  0  0  0  0  0  0  0  0  0
  1  2  1  0
  2  3  1  0
  3  4  2  0
  4  5  1  0
  5  6  2  0
  6  7  1  0
  7  8  2  0
  8  9  1  0
  9 10  2  0
 10 11  1  0
 11 12  1  0
 12 13  1  0
 13 14  1  0
 15 14  1  1
 15 16  1  0
 16 17  2  0
 17 18  1  0
 18 19  1  1
 19 20  2  0
 15 21  1  0
 21 22  1  0
 22 23  1  6
 10 24  1  0
 24 25  1  1
 25 26  2  0
  6 27  1  0
 27 28  1  6
  1 26  2  0
 27  1  1  0
 28 17  1  0
 20 18  1  0
 22 20  1  0
 27 24  1  0
M  END
>  <docking_score>  (1) 
-6.9249999999999998

$$$$

     RDKit          3D

 28 33  0  0  0  0  0  0  0  0999 V2000
   14.6128   -3.0662   -5.4446 C   0  0  0  0  0  0  0  0  0  0  0  0
   13.5144   -3.9194   -5.3600 O   0  0  0  0  0  0  0  0  0  0  0  0
   13.5301   -5.2673   -5.7432 C   0  0  0  0  0  0  0  0  0  0  0  0
   14.3284   -5.7929   -6.6851 C   0  0  0  0  0  0  0  0  0  0  0  0
   15.3216   -5.0240   -7.4691 C   0  0  0  0  0  0  0  0  0  0  0  0
   16.0699   -3.9817   -7.0826 C   0  0  0  0  0  0  0  0  0  0  0  0
   16.7930   -3.7457   -8.3386 C   0  0  0  0  0  0  0  0  0  0  0  0
   17.4161   -2.6126   -8.6296 C   0  0  0  0  0  0  0  0  0  0  0  0
   18.0723   -1.7266   -7.6651 C   0  0  0  0  0  0  0  0  0  0  0  0
   17.7375   -1.6009   -6.3893 C   0  0  0  0  0  0  0  0  0  0  0  0
   18.7260   -0.7547   -5.7716 N   0  0  0  0  0  0  0  0  0  0  0  0
   19.0948   -0.8939   -4.3702 C   0  0  0  0  0  0  0  0  0  0  0  0
   20.5267   -1.3630   -4.2435 C   0  0  0  0  0  0  0  0  0  0  0  0
   20.5520   -2.7201   -3.5710 C   0  0  0  0  0  0  0  0  0  0  0  0
   20.2806   -3.7607   -4.5913 C   0  0  2  0  0  0  0  0  0  0  0  0
   18.8655   -3.8591   -4.9992 C   0  0  0  0  0  0  0  0  0  0  0  0
   17.8933   -4.6681   -4.6483 C   0  0  0  0  0  0  0  0  0  0  0  0
   18.1131   -6.0711   -4.1346 C   0  0  2  0  0  0  0  0  0  0  0  0
   17.9716   -6.1433   -2.7065 N   0  0  0  0  0  0  0  0  0  0  0  0
   19.1720   -6.0160   -3.0631 C   0  0  0  0  0  0  0  0  0  0  0  0
   20.9838   -5.0413   -4.4381 C   0  0  0  0  0  0  0  0  0  0  0  0
   20.6238   -5.8718   -3.2607 C   0  0  2  0  0  0  0  0  0  0  0  0
   21.2641   -7.2396   -3.4155 C   0  0  0  0  0  0  0  0  0  0  0  0
   16.6796   -2.0923   -5.5581 C   0  0  1  0  0  0  0  0  0  0  0  0
   15.6436   -1.1158   -5.1825 C   0  0  0  0  0  0  0  0  0  0  0  0
   14.5117   -1.7849   -5.2344 C   0  0  0  0  0  0  0  0  0  0  0  0
   16.0579   -3.3772   -5.7691 C   0  0  1  0  0  0  0  0  0  0  0  0
   16.4593   -4.3856   -4.6812 C   0  0  0  0  0  0  0  0  0  0  0  0
  1  2  1  0
  2  3  1  0
  3  4  2  0
  4  5  1  0
  5  6  2  0
  6  7  1  0
  7  8  2  0
  8  9  1  0
  9 10  2  0
 10 11  1  0
 11 12  1  0
 12 13  1  0
 13 14  1  0
 15 14  1  1
 15 16  1  0
 16 17  2  0
 17 18  1  0
 18 19  1  1
 19 20  2  0
 15 21  1  0
 21 22  1  0
 22 23  1  6
 10 24  1  0
 24 25  1  6
 25 26  2  0
  6 27  1  0
 27 28  1  1
  1 26  2  0
 27  1  1  0
 28 17  1  0
 20 18  1  0
 22 20  1  0
 27 24  1  0
M  END
>  <docking_score>  (2) 
-6.3209999999999997

$$$$

     RDKit          3D

 28 33  0  0  0  0  0  0  0  0999 V2000
   19.9005   -5.2932   -3.1695 C   0  0  0  0  0  0  0  0  0  0  0  0
   20.7884   -4.6916   -2.2797 O   0  0  0  0  0  0  0  0  0  0  0  0
   21.1829   -3.3485   -2.3447 C   0  0  0  0  0  0  0  0  0  0  0  0
   21.2354   -2.6126   -3.4656 C   0  0  0  0  0  0  0  0  0  0  0  0
   20.8821   -3.1104   -4.8146 C   0  0  0  0  0  0  0  0  0  0  0  0
   19.9394   -3.9978   -5.1607 C   0  0  0  0  0  0  0  0  0  0  0  0
   20.1564   -4.0018   -6.6128 C   0  0  0  0  0  0  0  0  0  0  0  0
   19.7284   -4.9620   -7.4202 C   0  0  0  0  0  0  0  0  0  0  0  0
   18.5080   -5.7512   -7.2369 C   0  0  0  0  0  0  0  0  0  0  0  0
   17.9382   -6.0215   -6.0715 C   0  0  0  0  0  0  0  0  0  0  0  0
   16.6894   -6.6821   -6.3518 N   0  0  0  0  0  0  0  0  0  0  0  0
   15.5351   -6.5563   -5.4736 C   0  0  0  0  0  0  0  0  0  0  0  0
   14.4188   -5.8107   -6.1696 C   0  0  0  0  0  0  0  0  0  0  0  0
   14.1370   -4.5216   -5.4258 C   0  0  0  0  0  0  0  0  0  0  0  0
   15.1179   -3.4986   -5.8603 C   0  0  2  0  0  0  0  0  0  0  0  0
   16.4686   -3.6692   -5.2901 C   0  0  0  0  0  0  0  0  0  0  0  0
   17.0857   -3.1012   -4.2805 C   0  0  0  0  0  0  0  0  0  0  0  0
   16.7619   -1.7174   -3.7699 C   0  0  2  0  0  0  0  0  0  0  0  0
   15.9720   -1.7639   -2.5705 N   0  0  0  0  0  0  0  0  0  0  0  0
   15.2669   -1.6188   -3.6030 C   0  0  0  0  0  0  0  0  0  0  0  0
   14.6392   -2.1123   -5.9452 C   0  0  0  0  0  0  0  0  0  0  0  0
   14.2670   -1.4480   -4.6701 C   0  0  2  0  0  0  0  0  0  0  0  0
   14.0424    0.0293   -4.9382 C   0  0  0  0  0  0  0  0  0  0  0  0
   18.2774   -5.8110   -4.6960 C   0  0  1  0  0  0  0  0  0  0  0  0
   18.7112   -7.0014   -3.9459 C   0  0  0  0  0  0  0  0  0  0  0  0
   19.6890   -6.5782   -3.1736 C   0  0  0  0  0  0  0  0  0  0  0  0
   19.0414   -4.6715   -4.2491 C   0  0  1  0  0  0  0  0  0  0  0  0
   18.1667   -3.6709   -3.4778 C   0  0  0  0  0  0  0  0  0  0  0  0
  1  2  1  0
  2  3  1  0
  3  4  2  0
  4  5  1  0
  5  6  2  0
  6  7  1  0
  7  8  2  0
  8  9  1  0
  9 10  2  0
 10 11  1  0
 11 12  1  0
 12 13  1  0
 13 14  1  0
 15 14  1  1
 15 16  1  0
 16 17  2  0
 17 18  1  0
 18 19  1  1
 19 20  2  0
 15 21  1  0
 21 22  1  0
 22 23  1  6
 10 24  1  0
 24 25  1  6
 25 26  2  0
  6 27  1  0
 27 28  1  1
  1 26  2  0
 27  1  1  0
 28 17  1  0
 20 18  1  0
 22 20  1  0
 27 24  1  0
M  END
>  <docking_score>  (3) 
-6.3200000000000003

$$$$
