
     RDKit          3D

 59 60  0  0  0  0  0  0  0  0999 V2000
    8.9754   10.3441    7.4147 C   0  0  0  0  0  0  0  0  0  0  0  0
    8.4018   10.6312    6.0367 C   0  0  2  0  0  0  0  0  0  0  0  0
    6.8954   10.5513    6.1606 C   0  0  0  0  0  0  0  0  0  0  0  0
    8.9091    9.7478    5.1066 O   0  0  0  0  0  0  0  0  0  0  0  0
    8.7993   12.0610    5.6518 C   0  0  0  0  0  0  0  0  0  0  0  0
   10.2211   12.2814    6.1802 C   0  0  0  0  0  0  0  0  0  0  0  0
   10.5478   13.7454    6.2206 C   0  0  2  0  0  0  0  0  0  0  0  0
   10.9932   14.2490    4.8663 C   0  0  0  0  0  2  0  0  0  0  0  0
   11.5721   14.0818    7.2789 C   0  0  1  0  0  0  0  0  0  0  0  0
   11.2515   15.5003    7.7625 C   0  0  0  0  0  1  0  0  0  0  0  0
   11.4918   13.1217    8.4638 C   0  0  0  0  0  0  0  0  0  0  0  0
   12.4322   13.5420    9.3974 O   0  0  0  0  0  0  0  0  0  0  0  0
   12.0917   14.7154   10.0263 C   0  0  0  0  0  0  0  0  0  0  0  0
   12.4788   14.6611   11.4917 C   0  0  1  0  0  0  0  0  0  0  0  0
   12.7514   16.0497   12.0348 C   0  0  0  0  0  0  0  0  0  0  0  0
   11.4240   13.9599   12.2939 C   0  0  0  0  0  0  0  0  0  0  0  0
   10.7325   14.8678   13.2596 C   0  0  0  0  0  0  0  0  0  0  0  0
    9.3604   15.2737   12.8057 C   0  0  0  0  0  0  0  0  0  0  0  0
    8.2911   14.5435   13.5641 C   0  0  1  0  0  0  0  0  0  0  0  0
    7.5984   15.2304   14.7008 C   0  0  2  0  0  0  0  0  0  0  0  0
    8.2355   15.1006   16.0807 C   0  0  0  0  0  0  0  0  0  0  0  0
    7.3889   15.8051   17.1089 C   0  0  0  0  0  3  0  0  0  0  0  0
    7.6890   15.4091   18.4022 O   0  0  0  0  0  0  0  0  0  0  0  0
    7.1579   14.1117   13.7708 S   0  0  2  0  0  0  0  0  0  0  0  0
    6.9957   12.2493   14.3137 C   0  0  0  0  0  0  0  0  0  0  0  0
    5.6922   12.2822   15.0971 C   0  0  0  0  0  3  0  0  0  0  0  0
    4.3447   12.7677   13.9356 P   0  0  0  0  0  0  0  0  0  0  0  0
    2.6617   12.3884   14.5980 C   0  0  0  0  0  3  0  0  0  0  0  0
    2.2742   13.3633   15.5454 O   0  0  0  0  0  0  0  0  0  0  0  0
    4.6902   11.9111   12.0081 S   0  0  0  0  0  0  0  0  0  0  0  0
    3.2821   10.9366   11.4205 C   0  0  2  0  0  0  0  0  0  0  0  0
    3.3825    9.5122   11.8658 C   0  0  0  0  0  0  0  0  0  0  0  0
    5.0205    9.0087   12.3578 S   0  0  0  0  0  0  0  0  0  0  0  0
    4.9001    7.3247   13.0663 C   0  0  0  0  0  3  0  0  0  0  0  0
    6.2498    6.7714   13.4016 C   0  0  0  0  0  0  0  0  0  0  0  0
    3.0968   11.1441    9.9749 C   0  0  1  0  0  0  0  0  0  0  0  0
    3.6861   12.3750    9.6037 O   0  0  0  0  0  0  0  0  0  0  0  0
    3.6775   10.0989    9.0806 C   0  0  2  0  0  0  0  0  0  0  0  0
    4.8493    9.3804    9.6280 C   0  0  2  0  0  0  0  0  0  0  0  0
    5.3789    9.8901   10.9225 C   0  0  0  0  0  0  0  0  0  0  0  0
    5.8780    9.0605    8.5990 C   0  0  0  0  0  0  0  0  0  0  0  0
    5.2369    8.5931    7.4674 F   0  0  0  0  0  0  0  0  0  0  0  0
    3.9165   10.6577    7.6951 C   0  0  1  0  0  0  0  0  0  0  0  0
    3.7151    9.6778    6.5968 C   0  0  2  0  0  0  0  0  0  0  0  0
    2.4880    8.8401    6.6989 C   0  0  0  0  0  0  0  0  0  0  0  0
    2.9286    7.4065    6.9752 C   0  0  0  0  0  0  0  0  0  0  0  0
    3.2632    6.6669    5.7037 C   0  0  0  0  0  0  0  0  0  0  0  0
    2.2827    7.0871    4.6178 C   0  0  0  0  0  2  0  0  0  0  0  0
    4.9409    8.9569    6.1515 C   0  0  0  0  0  0  0  0  0  0  0  0
    5.4114    9.4248    4.7850 C   0  0  2  0  0  0  0  0  0  0  0  0
    6.3192    8.1016    3.9633 S   0  0  0  0  0  0  0  0  0  0  0  0
    6.2722   10.5141    4.9164 O   0  0  0  0  0  0  0  0  0  0  0  0
    2.9743   11.8200    7.5042 C   0  0  0  0  0  0  0  0  0  0  0  0
    3.6648   12.9317    7.0098 O   0  0  0  0  0  0  0  0  0  0  0  0
    3.0510   13.4654    5.8911 C   0  0  0  0  0  3  0  0  0  0  0  0
    4.0292   13.7010    4.7636 C   0  0  0  0  0  0  0  0  0  0  0  0
    3.4884   12.9993    3.5404 C   0  0  0  0  0  0  0  0  0  0  0  0
    2.4043   12.0576    4.0026 C   0  0  0  0  0  3  0  0  0  0  0  0
    2.7030   10.6343    3.5889 C   0  0  0  0  0  2  0  0  0  0  0  0
  2  1  1  1
  2  3  1  0
  2  4  1  0
  2  5  1  0
  5  6  1  0
  6  7  1  0
  7  8  1  6
  7  9  1  0
  9 10  1  1
  9 11  1  0
 11 12  1  0
 12 13  1  0
 13 14  1  0
 14 15  1  1
 14 16  1  0
 16 17  1  0
 17 18  1  0
 19 18  1  6
 19 20  1  0
 20 21  1  1
 21 22  1  0
 22 23  1  0
 19 24  1  0
 24 25  1  1
 25 26  1  0
 26 27  1  0
 27 28  1  0
 28 29  1  0
 27 30  1  0
 30 31  1  0
 31 32  1  6
 32 33  1  0
 33 34  1  0
 34 35  1  0
 31 36  1  0
 36 37  1  6
 38 36  1  0
 38 39  1  1
 39 40  1  1
 39 41  1  0
 41 42  1  0
 38 43  1  0
 43 44  1  0
 44 45  1  1
 45 46  1  0
 46 47  1  0
 47 48  1  0
 44 49  1  0
 49 50  1  0
 50 51  1  1
 50 52  1  0
 43 53  1  6
 53 54  1  0
 54 55  1  0
 55 56  1  0
 56 57  1  0
 57 58  1  0
 58 59  1  0
 52  3  1  0
 24 20  1  0
M  RAD  8   8   3  10   2  22   2  26   2  28   2  34   2  48   3  55   2
M  RAD  2  58   2  59   3
M  END
>  <docking_score>  (1) 
42.103000000000002

$$$$
