
     RDKit          3D

 26 26  0  0  0  0  0  0  0  0999 V2000
    6.4167    8.8833    5.4624 C   0  0  0  0  0  0  0  0  0  0  0  0
    5.2466    9.2094    4.5609 C   0  0  1  0  0  0  0  0  0  0  0  0
    4.2343    8.0960    4.5137 C   0  0  0  0  0  0  0  0  0  0  0  0
    3.1113    8.5098    3.6041 C   0  0  2  0  0  0  0  0  0  0  0  0
    2.7576    7.5377    2.6984 O   0  0  0  0  0  0  0  0  0  0  0  0
    3.3407    9.8654    2.9702 C   0  0  2  0  0  0  0  0  0  0  0  0
    4.4986    9.8406    2.2253 O   0  0  0  0  0  0  0  0  0  0  0  0
    3.4615   10.8665    4.1031 C   0  0  1  0  0  0  0  0  0  0  0  0
    2.2576   10.8250    4.8235 O   0  0  0  0  0  0  0  0  0  0  0  0
    4.6207   10.4998    4.9747 C   0  0  1  0  0  0  0  0  0  0  0  0
    4.2038   10.4942    6.3574 N   0  0  0  0  0  0  0  0  0  0  0  0
    4.6718   11.6951    6.9967 C   0  0  0  0  0  3  0  0  0  0  0  0
    3.5139   12.3908    7.6531 C   0  0  0  0  0  0  0  0  0  0  0  0
    3.9411   13.5129    8.5562 C   0  0  2  0  0  0  0  0  0  0  0  0
    4.1309   14.7088    7.8690 O   0  0  0  0  0  0  0  0  0  0  0  0
    5.2258   13.0928    9.2485 C   0  0  0  0  0  3  0  0  0  0  0  0
    5.0216   13.2637   10.6117 O   0  0  0  0  0  0  0  0  0  0  0  0
    6.2391   13.0932   11.2567 C   0  0  0  0  0  0  0  0  0  0  0  0
    6.4320   11.7813   11.6169 O   0  0  0  0  0  0  0  0  0  0  0  0
    5.3590   11.2801   12.3749 C   0  0  2  0  0  0  0  0  0  0  0  0
    5.6392   11.3784   13.7451 O   0  0  0  0  0  0  0  0  0  0  0  0
    5.1549    9.7978   12.0950 C   0  0  2  0  0  0  0  0  0  0  0  0
    6.3217    9.1722   11.6931 O   0  0  0  0  0  0  0  0  0  0  0  0
    4.0599    9.6862   11.0578 C   0  0  0  0  0  3  0  0  0  0  0  0
    3.9572    8.3686   10.6160 O   0  0  0  0  0  0  0  0  0  0  0  0
    3.9753    8.3737    9.2779 N   0  0  0  0  0  0  0  0  0  0  0  0
  2  1  1  1
  2  3  1  0
  3  4  1  0
  4  5  1  6
  4  6  1  0
  6  7  1  1
  6  8  1  0
  8  9  1  1
  8 10  1  0
 10 11  1  1
 11 12  1  0
 12 13  1  0
 13 14  1  0
 14 15  1  6
 14 16  1  0
 16 17  1  0
 17 18  1  0
 18 19  1  0
 19 20  1  0
 20 21  1  1
 20 22  1  0
 22 23  1  6
 22 24  1  0
 24 25  1  0
 25 26  1  0
 10  2  1  0
M  RAD  3  12   2  16   2  24   2
M  END
>  <docking_score>  (1) 
-2.597

$$$$

     RDKit          3D

 26 26  0  0  0  0  0  0  0  0999 V2000
    3.2316   12.0667    5.4949 C   0  0  0  0  0  0  0  0  0  0  0  0
    3.4026   10.6982    6.1164 C   0  0  1  0  0  0  0  0  0  0  0  0
    2.3487   10.4050    7.1507 C   0  0  0  0  0  0  0  0  0  0  0  0
    2.5936    9.0295    7.7056 C   0  0  2  0  0  0  0  0  0  0  0  0
    2.5478    8.9801    9.0789 O   0  0  0  0  0  0  0  0  0  0  0  0
    3.8278    8.3744    7.1226 C   0  0  2  0  0  0  0  0  0  0  0  0
    4.9365    9.1432    7.3979 O   0  0  0  0  0  0  0  0  0  0  0  0
    3.6092    8.2780    5.6249 C   0  0  1  0  0  0  0  0  0  0  0  0
    2.4600    7.4976    5.4227 O   0  0  0  0  0  0  0  0  0  0  0  0
    3.4329    9.6497    5.0545 C   0  0  1  0  0  0  0  0  0  0  0  0
    2.2576    9.6776    4.2157 N   0  0  0  0  0  0  0  0  0  0  0  0
    2.6540    9.5189    2.8419 C   0  0  0  0  0  3  0  0  0  0  0  0
    3.7963   10.4476    2.5450 C   0  0  0  0  0  0  0  0  0  0  0  0
    5.0508    9.7235    2.1462 C   0  0  2  0  0  0  0  0  0  0  0  0
    4.9583    8.3480    2.3410 O   0  0  0  0  0  0  0  0  0  0  0  0
    6.1992   10.2953    2.9589 C   0  0  0  0  0  3  0  0  0  0  0  0
    7.1522   10.7380    2.0506 O   0  0  0  0  0  0  0  0  0  0  0  0
    7.2430   12.1194    2.1569 C   0  0  0  0  0  0  0  0  0  0  0  0
    7.7239   12.4932    3.3886 O   0  0  0  0  0  0  0  0  0  0  0  0
    8.1779   13.8240    3.3948 C   0  0  2  0  0  0  0  0  0  0  0  0
    9.5786   13.8634    3.4417 O   0  0  0  0  0  0  0  0  0  0  0  0
    7.6970   14.5457    4.6458 C   0  0  2  0  0  0  0  0  0  0  0  0
    6.4116   15.0385    4.5081 O   0  0  0  0  0  0  0  0  0  0  0  0
    8.6993   15.6385    4.9436 C   0  0  0  0  0  3  0  0  0  0  0  0
    9.0629   15.5953    6.2882 O   0  0  0  0  0  0  0  0  0  0  0  0
   10.3972   15.5215    6.3583 N   0  0  0  0  0  0  0  0  0  0  0  0
  2  1  1  6
  2  3  1  0
  3  4  1  0
  4  5  1  1
  4  6  1  0
  6  7  1  6
  6  8  1  0
  8  9  1  1
  8 10  1  0
 10 11  1  1
 11 12  1  0
 12 13  1  0
 13 14  1  0
 14 15  1  1
 14 16  1  0
 16 17  1  0
 17 18  1  0
 18 19  1  0
 19 20  1  0
 20 21  1  1
 20 22  1  0
 22 23  1  6
 22 24  1  0
 24 25  1  0
 25 26  1  0
 10  2  1  0
M  RAD  3  12   2  16   2  24   2
M  END
>  <docking_score>  (2) 
-2.5670000000000002

$$$$

     RDKit          3D

 26 26  0  0  0  0  0  0  0  0999 V2000
    6.0552    8.5048   11.7036 C   0  0  0  0  0  0  0  0  0  0  0  0
    5.5387    9.7755   12.3413 C   0  0  1  0  0  0  0  0  0  0  0  0
    6.4703   10.9394   12.1313 C   0  0  0  0  0  0  0  0  0  0  0  0
    5.8750   12.1524   12.7900 C   0  0  2  0  0  0  0  0  0  0  0  0
    6.7734   12.8476   13.5647 O   0  0  0  0  0  0  0  0  0  0  0  0
    4.5741   11.8519   13.5037 C   0  0  2  0  0  0  0  0  0  0  0  0
    4.7872   10.9045   14.4800 O   0  0  0  0  0  0  0  0  0  0  0  0
    3.6094   11.3266   12.4580 C   0  0  1  0  0  0  0  0  0  0  0  0
    3.4539   12.3344   11.4933 O   0  0  0  0  0  0  0  0  0  0  0  0
    4.1639   10.0794   11.8456 C   0  0  1  0  0  0  0  0  0  0  0  0
    4.1043   10.1791   10.4061 N   0  0  0  0  0  0  0  0  0  0  0  0
    3.3019    9.1018    9.8909 C   0  0  0  0  0  3  0  0  0  0  0  0
    2.2576    9.6596    8.9669 C   0  0  0  0  0  0  0  0  0  0  0  0
    2.7877   10.7419    8.0698 C   0  0  2  0  0  0  0  0  0  0  0  0
    2.2575   11.9933    8.3721 O   0  0  0  0  0  0  0  0  0  0  0  0
    2.4606   10.3628    6.6361 C   0  0  0  0  0  3  0  0  0  0  0  0
    2.2840   11.5501    5.9374 O   0  0  0  0  0  0  0  0  0  0  0  0
    3.2608   11.6230    4.9534 C   0  0  0  0  0  0  0  0  0  0  0  0
    3.4246   10.4126    4.3241 O   0  0  0  0  0  0  0  0  0  0  0  0
    4.3330   10.4942    3.2540 C   0  0  2  0  0  0  0  0  0  0  0  0
    3.8593    9.7672    2.1527 O   0  0  0  0  0  0  0  0  0  0  0  0
    5.6631    9.8587    3.6339 C   0  0  2  0  0  0  0  0  0  0  0  0
    5.5448    8.9895    4.7037 O   0  0  0  0  0  0  0  0  0  0  0  0
    6.6313   10.9855    3.9171 C   0  0  0  0  0  3  0  0  0  0  0  0
    7.5999   11.0416    2.9168 O   0  0  0  0  0  0  0  0  0  0  0  0
    6.9955   11.3639    1.7673 N   0  0  0  0  0  0  0  0  0  0  0  0
  2  1  1  6
  2  3  1  0
  3  4  1  0
  4  5  1  1
  4  6  1  0
  6  7  1  1
  6  8  1  0
  8  9  1  6
  8 10  1  0
 10 11  1  6
 11 12  1  0
 12 13  1  0
 13 14  1  0
 14 15  1  1
 14 16  1  0
 16 17  1  0
 17 18  1  0
 18 19  1  0
 19 20  1  0
 20 21  1  6
 20 22  1  0
 22 23  1  1
 22 24  1  0
 24 25  1  0
 25 26  1  0
 10  2  1  0
M  RAD  3  12   2  16   2  24   2
M  END
>  <docking_score>  (3) 
-2.5590000000000002

$$$$
