
     RDKit          3D

 20 20  0  0  0  0  0  0  0  0999 V2000
   14.7553   -5.7994   -7.7399 O   0  0  0  0  0  0  0  0  0  0  0  0
   14.0002   -5.6070   -6.5837 C   0  0  0  0  0  0  0  0  0  0  0  0
   14.7622   -4.6874   -5.6504 C   0  0  1  0  0  0  0  0  0  0  0  0
   15.3829   -5.4889   -4.6171 N   0  0  0  0  0  0  0  0  0  0  0  0
   16.8304   -5.3964   -4.6707 C   0  0  2  0  0  0  0  0  0  0  0  0
   17.3339   -6.6125   -5.4308 C   0  0  0  0  0  0  0  0  0  0  0  0
   18.1683   -7.3334   -4.5857 O   0  0  0  0  0  0  0  0  0  0  0  0
   17.3586   -5.4390   -3.3878 O   0  0  0  0  0  0  0  0  0  0  0  0
   16.8676   -4.3534   -2.6726 C   0  0  1  0  0  0  0  0  0  0  0  0
   16.2087   -4.8695   -1.5559 O   0  0  0  0  0  0  0  0  0  0  0  0
   18.0019   -3.4679   -2.2685 C   0  0  0  0  0  0  0  0  0  0  0  0
   17.7205   -2.1196   -2.4023 O   0  0  0  0  0  0  0  0  0  0  0  0
   17.1002   -1.8487   -3.5443 O   0  0  0  0  0  0  0  0  0  0  0  0
   15.7445   -2.0812   -3.3073 C   0  0  1  0  0  0  0  0  0  0  0  0
   15.2209   -0.9799   -2.6213 O   0  0  0  0  0  0  0  0  0  0  0  0
   15.0069   -2.2764   -4.4380 O   0  0  0  0  0  0  0  0  0  0  0  0
   15.5680   -1.8247   -5.5387 O   0  0  0  0  0  0  0  0  0  0  0  0
   15.1356   -2.6479   -6.5739 C   0  0  1  0  0  0  0  0  0  0  0  0
   15.5846   -2.1373   -7.9064 C   0  0  0  0  0  0  0  0  0  0  0  0
   15.6808   -3.9248   -6.3580 O   0  0  0  0  0  0  0  0  0  0  0  0
  1  2  1  0
  3  2  1  6
  3  4  1  0
  4  5  1  0
  5  6  1  6
  6  7  1  0
  5  8  1  0
  8  9  1  0
  9 10  1  1
  9 11  1  0
 11 12  1  0
 12 13  1  0
 13 14  1  0
 14 15  1  6
 14 16  1  0
 16 17  1  0
 17 18  1  0
 18 19  1  6
 18 20  1  0
 20  3  1  0
M  END
>  <docking_score>  (1) 
-5.2750000000000004

$$$$

     RDKit          3D

 20 20  0  0  0  0  0  0  0  0999 V2000
   16.0896   -1.4000   -1.8891 O   0  0  0  0  0  0  0  0  0  0  0  0
   17.0103   -2.4417   -1.9951 C   0  0  0  0  0  0  0  0  0  0  0  0
   16.5122   -3.4299   -3.0308 C   0  0  1  0  0  0  0  0  0  0  0  0
   15.5319   -2.7689   -3.8661 N   0  0  0  0  0  0  0  0  0  0  0  0
   15.9733   -2.6959   -5.2469 C   0  0  2  0  0  0  0  0  0  0  0  0
   16.5724   -1.3151   -5.4582 C   0  0  0  0  0  0  0  0  0  0  0  0
   15.5401   -0.4424   -5.7786 O   0  0  0  0  0  0  0  0  0  0  0  0
   14.8884   -2.8321   -6.1019 O   0  0  0  0  0  0  0  0  0  0  0  0
   14.3083   -4.0758   -5.8834 C   0  0  1  0  0  0  0  0  0  0  0  0
   12.9788   -3.8450   -5.5275 O   0  0  0  0  0  0  0  0  0  0  0  0
   14.3988   -4.8947   -7.1306 C   0  0  0  0  0  0  0  0  0  0  0  0
   14.7282   -6.2180   -6.8958 O   0  0  0  0  0  0  0  0  0  0  0  0
   15.7029   -6.3405   -6.0029 O   0  0  0  0  0  0  0  0  0  0  0  0
   15.0832   -6.3004   -4.7528 C   0  0  1  0  0  0  0  0  0  0  0  0
   14.5255   -7.5576   -4.4959 O   0  0  0  0  0  0  0  0  0  0  0  0
   15.9220   -5.9817   -3.7254 O   0  0  0  0  0  0  0  0  0  0  0  0
   17.1981   -6.1629   -3.9884 O   0  0  0  0  0  0  0  0  0  0  0  0
   17.8968   -5.2153   -3.2465 C   0  0  1  0  0  0  0  0  0  0  0  0
   19.3751   -5.4238   -3.3417 C   0  0  0  0  0  0  0  0  0  0  0  0
   17.5723   -3.9487   -3.7609 O   0  0  0  0  0  0  0  0  0  0  0  0
  1  2  1  0
  3  2  1  1
  3  4  1  0
  4  5  1  0
  5  6  1  1
  6  7  1  0
  5  8  1  0
  8  9  1  0
  9 10  1  6
  9 11  1  0
 11 12  1  0
 12 13  1  0
 13 14  1  0
 14 15  1  1
 14 16  1  0
 16 17  1  0
 17 18  1  0
 18 19  1  6
 18 20  1  0
 20  3  1  0
M  END
>  <docking_score>  (2) 
-5.1950000000000003

$$$$

     RDKit          3D

 20 20  0  0  0  0  0  0  0  0999 V2000
   14.6091   -1.0068   -6.3979 O   0  0  0  0  0  0  0  0  0  0  0  0
   14.2395   -1.6358   -5.2097 C   0  0  0  0  0  0  0  0  0  0  0  0
   15.1478   -2.8284   -4.9858 C   0  0  1  0  0  0  0  0  0  0  0  0
   14.4312   -4.0307   -5.3554 N   0  0  0  0  0  0  0  0  0  0  0  0
   15.0694   -4.7082   -6.4691 C   0  0  2  0  0  0  0  0  0  0  0  0
   14.3307   -4.2972   -7.7323 C   0  0  0  0  0  0  0  0  0  0  0  0
   13.3799   -5.2709   -8.0112 O   0  0  0  0  0  0  0  0  0  0  0  0
   14.9464   -6.0832   -6.3243 O   0  0  0  0  0  0  0  0  0  0  0  0
   15.5821   -6.4612   -5.1478 C   0  0  1  0  0  0  0  0  0  0  0  0
   14.6242   -7.0971   -4.3568 O   0  0  0  0  0  0  0  0  0  0  0  0
   16.7159   -7.3814   -5.4667 C   0  0  0  0  0  0  0  0  0  0  0  0
   17.8539   -7.1298   -4.7206 O   0  0  0  0  0  0  0  0  0  0  0  0
   18.1167   -5.8316   -4.6308 O   0  0  0  0  0  0  0  0  0  0  0  0
   17.3466   -5.3584   -3.5673 C   0  0  1  0  0  0  0  0  0  0  0  0
   17.9906   -5.6948   -2.3717 O   0  0  0  0  0  0  0  0  0  0  0  0
   17.1433   -4.0096   -3.5838 O   0  0  0  0  0  0  0  0  0  0  0  0
   18.0030   -3.3385   -4.3193 O   0  0  0  0  0  0  0  0  0  0  0  0
   17.3276   -2.2228   -4.8043 C   0  0  1  0  0  0  0  0  0  0  0  0
   18.2494   -1.2951   -5.5306 C   0  0  0  0  0  0  0  0  0  0  0  0
   16.3348   -2.6776   -5.6886 O   0  0  0  0  0  0  0  0  0  0  0  0
  1  2  1  0
  3  2  1  6
  3  4  1  0
  4  5  1  0
  5  6  1  6
  6  7  1  0
  5  8  1  0
  8  9  1  0
  9 10  1  1
  9 11  1  0
 11 12  1  0
 12 13  1  0
 13 14  1  0
 14 15  1  1
 14 16  1  0
 16 17  1  0
 17 18  1  0
 18 19  1  6
 18 20  1  0
 20  3  1  0
M  END
>  <docking_score>  (3) 
-4.9089999999999998

$$$$
