
     RDKit          3D

 79 79  0  0  0  0  0  0  0  0999 V2000
    6.3032   13.7788    2.9827 C   0  0  0  0  0  0  0  0  0  0  0  0
    6.4513   12.3175    3.3449 C   0  0  0  0  0  0  0  0  0  0  0  0
    5.7433   11.4384    2.3231 C   0  0  0  0  0  0  0  0  0  0  0  0
    7.9241   11.9220    3.4270 C   0  0  0  0  0  0  0  0  0  0  0  0
    7.9882   10.4315    3.5362 C   0  0  0  0  0  0  0  0  0  0  0  0
    6.6574    9.7561    3.4659 C   0  0  0  0  0  0  0  0  0  0  0  0
    6.5719    8.4733    4.2378 C   0  0  1  0  0  0  0  0  0  0  0  0
    7.9577    7.9975    4.6579 C   0  0  0  0  0  0  0  0  0  0  0  0
    5.7660    8.6324    5.5126 C   0  0  1  0  0  0  0  0  0  0  0  0
    4.6809    9.6709    5.3108 C   0  0  0  0  0  0  0  0  0  0  0  0
    4.0468   10.0483    6.6141 C   0  0  0  0  0  0  0  0  0  0  0  0
    4.2308   11.5296    6.9174 C   0  0  0  0  0  0  0  0  0  0  0  0
    3.2724   12.3627    6.0853 C   0  0  0  0  0  0  0  0  0  0  0  0
    5.6784   11.8989    6.6250 C   0  0  0  0  0  0  0  0  0  0  0  0
    3.9323   11.8319    8.3403 C   0  0  0  0  0  0  0  0  0  0  0  0
    4.5186   11.1225    9.3082 C   0  0  0  0  0  0  0  0  0  0  0  0
    4.2503   11.3890   10.7477 C   0  0  0  0  0  0  0  0  0  0  0  0
    4.8379   10.2333   11.5581 C   0  0  0  0  0  0  0  0  0  0  0  0
    4.0837    8.9650   11.2195 C   0  0  2  0  0  0  0  0  0  0  0  0
    2.6950    9.3594   10.7746 C   0  0  0  0  0  1  0  0  0  0  0  0
    3.9645    8.1405   12.4684 C   0  0  0  0  0  0  0  0  0  0  0  0
    4.8491    8.2415   10.1447 C   0  0  0  0  0  0  0  0  0  0  0  0
    4.0925    7.0669    9.5824 C   0  0  0  0  0  0  0  0  0  0  0  0
    2.7768    7.3373    9.2840 O   0  0  0  0  0  0  0  0  0  0  0  0
    2.2628    6.6534    8.2094 C   0  0  0  0  0  0  0  0  0  0  0  0
    3.2894    6.3471    7.1704 C   0  0  0  0  0  0  0  0  0  0  0  0
    4.4648    7.2781    7.2439 C   0  0  0  0  0  0  0  0  0  0  0  0
    5.2153    7.3396    5.9688 C   0  0  0  0  0  0  0  0  0  0  0  0
    5.4017    6.2586    5.2313 C   0  0  0  0  0  0  0  0  0  0  0  0
    4.8426    4.9625    5.7006 C   0  0  0  0  0  3  0  0  0  0  0  0
    5.2611    4.7470    7.1167 C   0  0  0  0  0  0  0  0  0  0  0  0
    3.3798    4.8981    5.4477 C   0  0  0  0  0  3  0  0  0  0  0  0
    2.3763    4.2359    6.8570 Si  0  0  0  0  0  1  0  0  0  0  0  0
    2.7694    6.0704    4.7750 C   0  0  0  0  0  3  0  0  0  0  0  0
    3.6515    6.8012    3.8342 C   0  0  2  0  0  0  0  0  0  0  0  0
    3.0117    7.3484    2.6096 C   0  0  0  0  0  0  0  0  0  0  0  0
    4.8330    5.9448    3.4581 C   0  0  0  0  0  0  0  0  0  0  0  0
    4.8429    5.5537    2.0127 C   0  0  0  0  0  0  0  0  0  0  0  0
    6.2157    5.3769    1.4626 C   0  0  0  0  0  0  0  0  0  0  0  0
    6.3332    5.3644   -0.3749 Si  0  0  0  0  0  3  0  0  0  0  0  0
    7.2642    6.8687   -0.9477 C   0  0  0  0  0  0  0  0  0  0  0  0
    7.1105    3.8496   -1.0849 C   0  0  0  0  0  2  0  0  0  0  0  0
    6.8242    3.6894   -2.5545 C   0  0  0  0  0  0  0  0  0  0  0  0
    5.6423    2.8004   -2.8224 C   0  0  1  0  0  0  0  0  0  0  0  0
    4.5676    2.9810   -1.7661 C   0  0  0  0  0  1  0  0  0  0  0  0
    5.1043    3.1687   -4.1984 C   0  0  1  0  0  0  0  0  0  0  0  0
    5.1108    4.7033   -4.2637 C   0  0  0  0  0  0  0  0  0  0  0  0
    6.1302    2.6857   -5.2150 C   0  0  2  0  0  0  0  0  0  0  0  0
    5.4917    1.8528   -6.2756 C   0  0  0  0  0  0  0  0  0  0  0  0
    7.2431    1.9276   -4.4847 C   0  0  0  0  0  0  0  0  0  0  0  0
    6.7707    0.5058   -4.3120 C   0  0  0  0  0  3  0  0  0  0  0  0
    7.2399   -0.3068   -5.4927 C   0  0  0  0  0  0  0  0  0  0  0  0
    8.7399   -0.4713   -5.3865 C   0  0  0  0  0  0  0  0  0  0  0  0
    9.3979   -0.2858   -6.6973 C   0  0  0  0  0  3  0  0  0  0  0  0
    8.4450   -0.9705   -8.0773 S   0  0  0  0  0  0  0  0  0  0  0  0
   10.8465   -0.5211   -6.8049 C   0  0  0  0  0  0  0  0  0  0  0  0
   11.5460   -1.0912   -5.6495 C   0  0  0  0  0  0  0  0  0  0  0  0
   11.8090   -0.2307   -4.4709 C   0  0  1  0  0  0  0  0  0  0  0  0
   10.3507    0.0270   -3.4171 S   0  0  0  0  0  0  0  0  0  0  0  0
   12.9123   -0.8090   -3.5859 C   0  0  0  0  0  0  0  0  0  0  0  0
   14.1561   -0.9272   -4.4197 C   0  0  0  0  0  0  0  0  0  0  0  0
   14.1676   -2.2436   -5.1395 C   0  0  0  0  0  0  0  0  0  0  0  0
   15.0622   -2.3085   -6.3219 C   0  0  2  0  0  0  0  0  0  0  0  0
   14.3518   -1.7614   -7.8653 S   0  0  0  0  0  0  0  0  0  0  0  0
   16.0647   -3.7783   -6.4657 S   0  0  0  0  0  0  0  0  0  0  0  0
   16.9379   -4.1679   -4.9175 C   0  0  0  0  0  3  0  0  0  0  0  0
   18.2583   -4.8188   -5.1720 C   0  0  0  0  0  0  0  0  0  0  0  0
   18.4045   -5.4463   -6.5228 C   0  0  1  0  0  0  0  0  0  0  0  0
   16.7469   -5.4173   -7.3069 S   0  0  0  0  0  0  0  0  0  0  0  0
   19.5581   -4.5911   -7.6045 S   0  0  0  0  0  0  0  0  0  0  0  0
   19.8052   -2.8670   -7.0819 C   0  0  0  0  0  0  0  0  0  0  0  0
   20.1933   -2.8763   -5.6151 C   0  0  0  0  0  0  0  0  0  0  0  0
   19.3062   -3.8184   -4.8278 C   0  0  1  0  0  0  0  0  0  0  0  0
   20.0349   -5.0006   -4.2759 C   0  0  0  0  0  0  0  0  0  0  0  0
   18.5276   -3.0815   -3.7527 C   0  0  0  0  0  3  0  0  0  0  0  0
   19.4486   -2.5074   -2.7011 C   0  0  2  0  0  0  0  0  0  0  0  0
   18.4249   -2.2275   -1.2062 S   0  0  0  0  0  0  0  0  0  0  0  0
   19.8604   -1.1271   -3.1879 C   0  0  0  0  0  0  0  0  0  0  0  0
   21.3808   -0.5525   -2.3863 S   0  0  0  0  0  0  0  0  0  0  0  0
  1  2  1  0
  2  3  1  0
  2  4  1  0
  4  5  1  0
  5  6  1  0
  6  7  1  0
  7  8  1  1
  7  9  1  0
  9 10  1  6
 10 11  1  0
 11 12  1  0
 12 13  1  0
 12 14  1  0
 12 15  1  0
 15 16  2  3
 16 17  1  0
 17 18  1  0
 18 19  1  0
 19 20  1  6
 19 21  1  0
 19 22  1  0
 22 23  1  0
 23 24  1  0
 24 25  1  0
 25 26  1  0
 26 27  1  0
 27 28  1  0
 28 29  2  3
 29 30  1  0
 30 31  1  0
 30 32  1  0
 32 33  1  0
 32 34  1  0
 34 35  1  0
 35 36  1  6
 35 37  1  0
 37 38  1  0
 38 39  1  0
 39 40  1  0
 40 41  1  0
 40 42  1  0
 42 43  1  0
 43 44  1  0
 44 45  1  1
 44 46  1  0
 46 47  1  1
 46 48  1  0
 48 49  1  6
 48 50  1  0
 50 51  1  0
 51 52  1  0
 52 53  1  0
 53 54  1  0
 54 55  1  0
 54 56  1  0
 56 57  1  0
 57 58  1  0
 58 59  1  1
 58 60  1  0
 60 61  1  0
 61 62  1  0
 62 63  1  0
 63 64  1  6
 63 65  1  0
 65 66  1  0
 66 67  1  0
 67 68  1  0
 68 69  1  6
 68 70  1  0
 70 71  1  0
 71 72  1  0
 72 73  1  0
 73 74  1  1
 73 75  1  0
 75 76  1  0
 76 77  1  1
 76 78  1  0
 78 79  1  0
 28  9  1  0
M  RAD  8  20   2  30   2  32   2  33   2  34   2  40   2  42   3  45   2
M  RAD  4  51   2  54   2  66   2  75   2
M  END
>  <docking_score>  (1) 
33.673000000000002

$$$$
