
     RDKit          3D

 83 89  0  0  0  0  0  0  0  0999 V2000
   16.0238   10.7292   12.6281 C   0  0  0  0  0  0  0  0  0  0  0  0
   16.1800   10.1714   14.0557 C   0  0  0  0  0  0  0  0  0  0  0  0
   17.1675   11.2318   14.6800 C   0  0  0  0  0  0  0  0  0  0  0  0
   14.9160   10.4242   14.7864 C   0  0  0  0  0  0  0  0  0  0  0  0
   14.7666   11.6756   15.1003 O   0  0  0  0  0  0  0  0  0  0  0  0
   13.9259    9.5474   15.1521 N   0  0  0  0  0  0  0  0  0  0  0  0
   12.7113    9.7882   15.8571 C   0  0  1  0  0  0  0  0  0  0  0  0
   12.8468    9.6807   17.2633 C   0  0  0  0  0  0  0  0  0  0  0  0
   12.4172    8.5135   17.9615 O   0  0  0  0  0  0  0  0  0  0  0  0
   13.3780   10.5984   18.1698 C   0  0  0  0  0  0  0  0  0  0  0  0
   13.8913   11.9158   17.6958 C   0  0  0  0  0  0  0  0  0  0  0  0
   13.2847   12.5931   16.5890 C   0  0  0  0  0  0  0  0  0  0  0  0
   13.8057   13.7599   16.1568 C   0  0  0  0  0  0  0  0  0  0  0  0
   14.9377   14.3022   16.8015 C   0  0  0  0  0  0  0  0  0  0  0  0
   15.5213   13.6360   17.8841 C   0  0  0  0  0  0  0  0  0  0  0  0
   14.9536   12.4421   18.2881 C   0  0  0  0  0  0  0  0  0  0  0  0
   11.9266   10.8751   15.4484 N   0  0  0  0  0  0  0  0  0  0  0  0
   12.0485   12.1617   15.9413 C   0  0  2  0  0  0  0  0  0  0  0  0
   11.4520   13.1789   15.1166 C   0  0  2  0  0  0  0  0  0  0  0  0
   10.1089   12.9176   14.6120 C   0  0  0  0  0  0  0  0  0  0  0  0
   12.2036   14.2241   14.4384 C   0  0  0  0  0  0  0  0  0  0  0  0
   12.6260   14.2759   13.1285 C   0  0  0  0  0  0  0  0  0  0  0  0
   12.4555   13.3116   12.0115 C   0  0  0  0  0  0  0  0  0  0  0  0
   11.2976   12.7506   11.6177 C   0  0  0  0  0  0  0  0  0  0  0  0
    9.8978   12.8483   12.0704 C   0  0  0  0  0  0  0  0  0  0  0  0
    9.6611   13.5487   13.3796 C   0  0  1  0  0  0  0  0  0  0  0  0
    8.0956   13.5598   13.5786 C   0  0  0  0  0  0  0  0  0  0  0  0
    7.5963   14.9970   13.5331 C   0  0  1  0  0  0  0  0  0  0  0  0
    7.4540   15.5890   14.8170 C   0  0  0  0  0  0  0  0  0  0  0  0
    8.5128   15.9396   15.5957 C   0  0  0  0  0  0  0  0  0  0  0  0
   10.0552   15.0266   13.2108 C   0  0  0  0  0  0  0  0  0  0  0  0
    9.3218   15.5853   12.0550 C   0  0  0  0  0  0  0  0  0  0  0  0
    7.9255   15.5483   12.2965 C   0  0  0  0  0  0  0  0  0  0  0  0
    7.1757   16.0126   11.1520 C   0  0  0  0  0  0  0  0  0  0  0  0
    5.9734   15.2701   10.8442 C   0  0  0  0  0  0  0  0  0  0  0  0
    5.0164   14.8499   11.7001 C   0  0  0  0  0  0  0  0  0  0  0  0
    4.8787   14.9550   13.0254 C   0  0  0  0  0  0  0  0  0  0  0  0
    4.7560   15.9258   13.9560 C   0  0  0  0  0  0  0  0  0  0  0  0
    4.6410   15.2602   15.3188 C   0  0  0  0  0  0  0  0  0  0  0  0
    4.3820   14.0480   15.5974 C   0  0  0  0  0  0  0  0  0  0  0  0
    9.7304   15.9809   10.7737 C   0  0  0  0  0  0  0  0  0  0  0  0
   10.4992   16.0548    9.9590 C   0  0  0  0  0  0  0  0  0  0  0  0
   11.6220   16.0491    9.0599 C   0  0  0  0  0  0  0  0  0  0  0  0
   11.2307   16.0714    7.7100 C   0  0  0  0  0  0  0  0  0  0  0  0
    9.8893   16.0555    7.3873 C   0  0  0  0  0  0  0  0  0  0  0  0
    8.9287   15.7237    6.7779 C   0  0  0  0  0  0  0  0  0  0  0  0
    7.5117   16.0426    6.8644 C   0  0  0  0  0  0  0  0  0  0  0  0
    6.5416   15.5844    6.2013 C   0  0  0  0  0  0  0  0  0  0  0  0
    6.4928   14.5933    5.0915 C   0  0  0  0  0  0  0  0  0  0  0  0
    7.6216   13.8997    4.7775 C   0  0  0  0  0  0  0  0  0  0  0  0
    8.3926   13.0609    4.1565 C   0  0  0  0  0  0  0  0  0  0  0  0
    7.9935   11.8974    3.1759 C   0  0  0  0  0  0  0  0  0  0  0  0
    6.7123   11.9916    3.1544 C   0  0  0  0  0  0  0  0  0  0  0  0
    5.5904   12.0706    3.1367 C   0  0  0  0  0  0  0  0  0  0  0  0
    4.3397   12.1429    3.1162 C   0  0  2  0  0  0  0  0  0  0  0  0
    3.3143   13.2048    2.7369 C   0  0  0  0  0  0  0  0  0  0  0  0
    3.2849   14.4324    3.1368 C   0  0  0  0  0  0  0  0  0  0  0  0
    4.1854   15.2105    4.0982 C   0  0  0  0  0  0  0  0  0  0  0  0
    5.1503   14.4066    4.5628 C   0  0  0  0  0  0  0  0  0  0  0  0
    4.7290   13.1156    4.3512 C   0  0  1  0  0  0  0  0  0  0  0  0
    5.6685   13.6633    2.8647 C   0  0  0  0  0  0  0  0  0  0  0  0
    5.4045   12.2195    5.1271 C   0  0  0  0  0  0  0  0  0  0  0  0
    5.3420   11.1353    5.7670 C   0  0  0  0  0  0  0  0  0  0  0  0
    4.1637   10.2266    5.9430 C   0  0  2  0  0  0  0  0  0  0  0  0
    4.0525   10.1804    7.3795 O   0  0  0  0  0  0  0  0  0  0  0  0
    4.9710    9.5222    7.9835 O   0  0  0  0  0  0  0  0  0  0  0  0
    4.5520    8.8864    9.0216 O   0  0  0  0  0  0  0  0  0  0  0  0
    3.6948    9.6971    9.7630 C   0  0  0  0  0  0  0  0  0  0  0  0
    3.5750    9.0836   11.1832 C   0  0  0  0  0  0  0  0  0  0  0  0
    4.1156    8.8660    5.4837 C   0  0  1  0  0  0  0  0  0  0  0  0
    5.1479    7.8726    5.6692 C   0  0  0  0  0  0  0  0  0  0  0  0
    2.7809    8.3703    5.0828 C   0  0  0  0  0  0  0  0  0  0  0  0
    2.6313    6.9171    5.2288 C   0  0  0  0  0  0  0  0  0  0  0  0
    2.6965    6.2359    6.4075 C   0  0  0  0  0  0  0  0  0  0  0  0
    2.5262    4.9232    6.1583 C   0  0  0  0  0  0  0  0  0  0  0  0
    2.4930    3.8167    6.8515 O   0  0  0  0  0  0  0  0  0  0  0  0
    2.3451    4.7617    4.6384 N   0  0  0  0  0  0  0  0  0  0  0  0
    2.4150    5.9924    4.1868 C   0  0  0  0  0  0  0  0  0  0  0  0
    2.2975    6.2963    2.6817 C   0  0  0  0  0  0  0  0  0  0  0  0
    3.4553    5.8291    1.9882 C   0  0  0  0  0  0  0  0  0  0  0  0
    4.6801    5.5006    2.6093 C   0  0  0  0  0  0  0  0  0  0  0  0
    5.6491    5.0838    1.4575 C   0  0  0  0  0  0  0  0  0  0  0  0
    6.7625    5.7180    1.4634 C   0  0  0  0  0  0  0  0  0  0  0  0
  1  2  1  0
  2  3  1  0
  2  4  1  0
  4  5  2  0
  4  6  1  0
  7  6  1  6
  7  8  1  0
  8  9  1  0
  8 10  2  0
 10 11  1  0
 11 12  2  0
 12 13  1  0
 13 14  2  0
 14 15  1  0
 15 16  2  0
  7 17  1  0
 18 17  1  6
 18 19  1  0
 19 20  1  6
 19 21  1  0
 21 22  2  3
 22 23  1  0
 23 24  2  3
 24 25  1  0
 26 25  1  6
 26 27  1  0
 27 28  1  0
 28 29  1  1
 29 30  2  0
 26 31  1  0
 31 32  1  0
 32 33  2  0
 33 34  1  0
 34 35  1  0
 35 36  2  3
 36 37  1  0
 37 38  2  3
 38 39  1  0
 39 40  2  0
 32 41  1  0
 41 42  2  3
 42 43  1  0
 43 44  2  3
 44 45  1  0
 45 46  2  3
 46 47  1  0
 47 48  2  3
 48 49  1  0
 49 50  2  3
 50 51  1  0
 51 52  2  3
 52 53  1  0
 53 54  3  0
 55 54  1  6
 55 56  1  0
 56 57  2  0
 57 58  1  0
 58 59  2  0
 59 60  1  0
 60 61  1  6
 60 62  1  0
 62 63  2  3
 63 64  1  0
 64 65  1  1
 65 66  1  0
 66 67  1  0
 67 68  1  0
 68 69  1  0
 64 70  1  0
 70 71  1  1
 70 72  1  0
 72 73  1  0
 73 74  2  0
 74 75  1  0
 75 76  2  0
 75 77  1  0
 77 78  2  0
 78 79  1  0
 79 80  1  0
 80 81  2  3
 81 82  1  0
 82 83  2  0
 16 11  1  0
 18 12  1  0
 26 20  1  0
 33 28  1  0
 59 49  1  0
 60 55  1  0
 78 73  1  0
M  END
>  <docking_score>  (1) 
47.020000000000003

$$$$
