
     RDKit          3D

 70 71  0  0  0  0  0  0  0  0999 V2000
   14.5483   -4.5334    1.0056 C   0  0  0  0  0  0  0  0  0  0  0  0
   15.4231   -3.8603    0.2777 C   0  0  0  0  0  0  0  0  0  0  0  0
   16.1281   -4.5798   -0.8119 C   0  0  0  0  0  0  0  0  0  0  0  0
   15.6443   -2.4310    0.5957 C   0  0  0  0  0  3  0  0  0  0  0  0
   14.5824   -1.5506   -0.0227 C   0  0  0  0  0  0  0  0  0  0  0  0
   15.1128   -0.6327   -1.0668 C   0  0  0  0  0  0  0  0  0  0  0  0
   14.8623   -1.1202   -2.4740 C   0  0  2  0  0  0  0  0  0  0  0  0
   13.6863   -2.0506   -2.4790 C   0  0  0  0  0  0  0  0  0  0  0  0
   16.1181   -1.7740   -3.0074 C   0  0  0  0  0  0  0  0  0  0  0  0
   17.3368   -0.9262   -2.7913 C   0  0  0  0  0  0  0  0  0  0  0  0
   18.6032   -1.6698   -3.1026 C   0  0  0  0  0  0  0  0  0  0  0  0
   18.3960   -2.8775   -3.9682 C   0  0  0  0  0  3  0  0  0  0  0  0
   18.2652   -4.0564   -3.2606 O   0  0  0  0  0  0  0  0  0  0  0  0
   16.9636   -4.5299   -3.2105 C   0  0  0  0  0  0  0  0  0  0  0  0
   16.8096   -5.9055   -3.7049 C   0  0  0  0  0  0  0  0  0  0  0  0
   17.6666   -6.8329   -3.3006 C   0  0  0  0  0  0  0  0  0  0  0  0
   17.5139   -8.2224   -3.7978 C   0  0  0  0  0  0  0  0  0  0  0  0
   18.5326   -8.4301   -4.9007 C   0  0  0  0  0  0  0  0  0  0  0  0
   17.7701   -8.6311   -6.1898 C   0  0  0  0  0  3  0  0  0  0  0  0
   16.6185   -9.5707   -5.9147 C   0  0  0  0  0  3  0  0  0  0  0  0
   17.0687  -10.9686   -5.5950 C   0  0  0  0  0  3  0  0  0  0  0  0
   17.7614  -11.5278   -6.8239 C   0  0  0  0  0  0  0  0  0  0  0  0
   19.1786  -10.9753   -6.8856 C   0  0  0  0  0  0  0  0  0  0  0  0
   19.3000  -10.1538   -8.1740 C   0  0  0  0  0  0  0  0  0  0  0  0
   20.6913   -9.6358   -8.3519 C   0  0  0  0  0  0  0  0  0  0  0  0
   20.9977   -8.6293   -7.2600 C   0  0  0  0  0  0  0  0  0  0  0  0
   20.9086   -7.2070   -7.7678 C   0  0  2  0  0  0  0  0  0  0  0  0
   20.6173   -6.3200   -6.5686 C   0  0  0  0  0  0  0  0  0  0  0  0
   19.7461   -7.1462   -8.7401 C   0  0  0  0  0  0  0  0  0  0  0  0
   19.0393   -5.8186   -8.5459 C   0  0  0  0  0  3  0  0  0  0  0  0
   17.5387   -6.0231   -8.6192 C   0  0  0  0  0  0  0  0  0  0  0  0
   16.9547   -5.5251   -7.3071 C   0  0  0  0  0  3  0  0  0  0  0  0
   17.4648   -4.1261   -7.0828 C   0  0  0  0  0  0  0  0  0  0  0  0
   16.3052   -3.2790   -6.6191 C   0  0  0  0  0  0  0  0  0  0  0  0
   16.3306   -1.8973   -7.1801 C   0  0  1  0  0  0  0  0  0  0  0  0
   17.3689   -1.6661   -8.2248 C   0  0  0  0  0  2  0  0  0  0  0  0
   14.9595   -1.3887   -7.5834 C   0  0  0  0  0  0  0  0  0  0  0  0
   14.9431    0.1008   -7.2316 C   0  0  0  0  0  0  0  0  0  0  0  0
   14.4805    0.3307   -5.8587 C   0  0  0  0  0  0  0  0  0  0  0  0
   15.0391   -0.2358   -4.7854 C   0  0  0  0  0  0  0  0  0  0  0  0
   14.5363    0.0264   -3.4090 C   0  0  1  0  0  0  0  0  0  0  0  0
   13.0159    0.1856   -3.5415 C   0  0  0  0  0  2  0  0  0  0  0  0
   15.0495    1.3496   -2.8710 C   0  0  0  0  0  0  0  0  0  0  0  0
   15.2693    2.2654   -4.0520 C   0  0  0  0  0  3  0  0  0  0  0  0
   15.9044    1.5395   -5.1980 C   0  0  0  0  0  0  0  0  0  0  0  0
   17.2609    2.1338   -5.4514 C   0  0  0  0  0  3  0  0  0  0  0  0
   17.1107    3.1941   -6.5280 C   0  0  0  0  0  3  0  0  0  0  0  0
   18.2374    4.1860   -6.5233 C   0  0  0  0  0  0  0  0  0  0  0  0
   17.7137    5.5815   -6.2529 C   0  0  2  0  0  0  0  0  0  0  0  0
   18.2397    6.5430   -7.2905 C   0  0  0  0  0  0  0  0  0  0  0  0
   18.1923    5.9793   -4.8676 C   0  0  2  0  0  0  0  0  0  0  0  0
   17.4618    7.2033   -4.4002 C   0  0  0  0  0  0  0  0  0  0  0  0
   16.8622    6.9124   -3.0204 C   0  0  0  0  0  3  0  0  0  0  0  0
   16.3142    8.1782   -2.4078 C   0  0  0  0  0  0  0  0  0  0  0  0
   17.2454    9.3224   -2.5967 C   0  0  0  0  0  0  0  0  0  0  0  0
   17.8467    9.5654   -3.7400 C   0  0  0  0  0  0  0  0  0  0  0  0
   18.7628   10.7225   -3.8614 C   0  0  0  0  0  0  0  0  0  0  0  0
   19.2844   11.0589   -2.4772 C   0  0  0  0  0  0  0  0  0  0  0  0
   19.5930    9.7630   -1.7673 C   0  0  0  0  0  0  0  0  0  0  0  0
   21.0848    9.7741   -1.4614 C   0  0  0  0  0  0  0  0  0  0  0  0
   21.3803    8.9371   -0.2263 C   0  0  0  0  0  0  0  0  0  0  0  0
   20.2535    7.9793    0.0746 C   0  0  1  0  0  0  0  0  0  0  0  0
   18.9814    8.7388    0.3964 C   0  0  0  0  0  0  0  0  0  0  0  0
   19.9854    7.1635   -1.1802 C   0  0  0  0  0  0  0  0  0  0  0  0
   21.2713    6.4893   -1.6113 C   0  0  0  0  0  0  0  0  0  0  0  0
   21.3824    6.4213   -3.1273 C   0  0  0  0  0  3  0  0  0  0  0  0
   20.0939    7.0097   -3.7014 C   0  0  0  0  0  0  0  0  0  0  0  0
   19.6929    6.1511   -4.8763 C   0  0  2  0  0  0  0  0  0  0  0  0
   20.1651    6.8026   -6.1125 C   0  0  0  0  0  0  0  0  0  0  0  0
   21.3786    7.2945   -6.2604 C   0  0  0  0  0  3  0  0  0  0  0  0
  1  2  2  0
  2  3  1  0
  2  4  1  0
  4  5  1  0
  5  6  1  0
  6  7  1  0
  7  8  1  1
  7  9  1  0
  9 10  1  0
 10 11  1  0
 11 12  1  0
 12 13  1  0
 13 14  1  0
 14 15  1  0
 15 16  2  3
 16 17  1  0
 17 18  1  0
 18 19  1  0
 19 20  1  0
 20 21  1  0
 21 22  1  0
 22 23  1  0
 23 24  1  0
 24 25  1  0
 25 26  1  0
 26 27  1  0
 27 28  1  1
 27 29  1  0
 29 30  1  0
 30 31  1  0
 31 32  1  0
 32 33  1  0
 33 34  1  0
 34 35  1  0
 35 36  1  6
 35 37  1  0
 37 38  1  0
 38 39  1  0
 39 40  2  3
 40 41  1  0
 41 42  1  6
 41 43  1  0
 43 44  1  0
 44 45  1  0
 45 46  1  0
 46 47  1  0
 47 48  1  0
 48 49  1  0
 49 50  1  6
 51 49  1  0
 51 52  1  6
 52 53  1  0
 53 54  1  0
 54 55  1  0
 55 56  2  3
 56 57  1  0
 57 58  1  0
 58 59  1  0
 59 60  1  0
 60 61  1  0
 61 62  1  0
 62 63  1  6
 62 64  1  0
 64 65  1  0
 65 66  1  0
 66 67  1  0
 67 68  1  0
 68 69  1  6
 69 70  2  0
 41  7  1  0
 68 51  1  0
M  RAD  8   4   2  12   2  19   2  20   2  21   2  30   2  32   2  36   3
M  RAD  7  42   3  44   2  46   2  47   2  53   2  66   2  70   2
M  END
>  <docking_score>  (1) 
71.613

$$$$
