
     RDKit          3D

 28 30  0  0  0  0  0  0  0  0999 V2000
   19.0057   -4.5697   -2.1409 C   0  0  0  0  0  0  0  0  0  0  0  0
   20.1624   -3.6547   -2.4823 C   0  0  2  0  0  0  0  0  0  0  0  0
   20.3342   -2.7138   -1.2919 C   0  0  0  0  0  0  0  0  0  0  0  0
   19.8477   -2.7945   -3.6752 C   0  0  0  0  0  0  0  0  0  0  0  0
   19.0329   -3.5250   -4.6802 C   0  0  1  0  0  0  0  0  0  0  0  0
   19.7706   -4.4993   -5.5195 C   0  0  0  0  0  0  0  0  0  0  0  0
   19.8850   -4.1204   -6.9635 C   0  0  1  0  0  0  0  0  0  0  0  0
   19.5196   -5.2148   -7.9099 C   0  0  0  0  0  0  0  0  0  0  0  0
   19.2579   -2.7976   -7.2952 C   0  0  0  0  0  3  0  0  0  0  0  0
   18.0421   -2.9250   -8.1805 C   0  0  0  0  0  0  0  0  0  0  0  0
   16.9627   -1.9240   -7.7463 C   0  0  0  0  0  0  0  0  0  0  0  0
   15.8810   -2.7326   -7.0767 C   0  0  1  0  0  0  0  0  0  0  0  0
   16.5846   -3.8316   -6.2849 C   0  0  2  0  0  0  0  0  0  0  0  0
   15.7372   -5.0821   -6.2778 C   0  0  0  0  0  3  0  0  0  0  0  0
   16.6156   -6.2949   -6.4549 C   0  0  0  0  0  0  0  0  0  0  0  0
   16.2312   -7.2957   -5.4389 C   0  0  0  0  0  0  0  0  0  0  0  0
   15.1557   -7.0381   -4.5584 N   0  0  0  0  0  1  0  0  0  0  0  0
   16.8746   -8.3861   -5.3648 N   0  0  0  0  0  2  0  0  0  0  0  0
   14.9673   -1.9876   -6.2212 C   0  0  1  0  0  0  0  0  0  0  0  0
   14.6834   -0.7081   -6.4932 O   0  0  0  0  0  0  0  0  0  0  0  0
   14.3187   -2.6591   -5.1024 C   0  0  0  0  0  3  0  0  0  0  0  0
   15.2643   -3.5310   -4.2639 C   0  0  0  0  0  0  0  0  0  0  0  0
   16.6309   -3.3210   -4.8386 C   0  0  2  0  0  0  0  0  0  0  0  0
   16.9168   -1.8346   -4.8255 C   0  0  0  0  0  0  0  0  0  0  0  0
   17.7207   -4.0484   -4.1418 C   0  0  2  0  0  0  0  0  0  0  0  0
   17.7220   -3.9083   -2.6574 C   0  0  2  0  0  0  0  0  0  0  0  0
   17.7861   -2.4603   -2.1956 C   0  0  0  0  0  0  0  0  0  0  0  0
   16.5777   -4.6089   -1.9887 C   0  0  0  0  0  2  0  0  0  0  0  0
  1  2  1  0
  2  3  1  1
  2  4  1  0
  5  4  1  1
  5  6  1  0
  6  7  1  0
  7  8  1  6
  7  9  1  0
  9 10  1  0
 10 11  1  0
 12 11  1  1
 12 13  1  0
 13 14  1  1
 14 15  1  0
 15 16  1  0
 16 17  1  0
 16 18  2  0
 12 19  1  0
 19 20  1  6
 19 21  1  0
 21 22  1  0
 22 23  1  0
 23 24  1  6
 23 25  1  0
 25 26  1  1
 26 27  1  6
 26 28  1  0
 26  1  1  0
 25  5  1  0
 23 13  1  0
M  CHG  2  17   1  18  -1
M  RAD  5   9   2  14   2  17   2  21   2  28   3
M  END
>  <docking_score>  (1) 
-6.2130000000000001

$$$$

     RDKit          3D

 28 30  0  0  0  0  0  0  0  0999 V2000
   18.0980   -6.7784   -6.2472 C   0  0  0  0  0  0  0  0  0  0  0  0
   17.5482   -7.4252   -4.9938 C   0  0  2  0  0  0  0  0  0  0  0  0
   16.5825   -8.5134   -5.4578 C   0  0  0  0  0  0  0  0  0  0  0  0
   16.7449   -6.4486   -4.1797 C   0  0  0  0  0  0  0  0  0  0  0  0
   17.3250   -5.0817   -4.2313 C   0  0  1  0  0  0  0  0  0  0  0  0
   18.5276   -4.8624   -3.3925 C   0  0  0  0  0  0  0  0  0  0  0  0
   18.3207   -3.9397   -2.2316 C   0  0  1  0  0  0  0  0  0  0  0  0
   19.3621   -2.8785   -2.1055 C   0  0  0  0  0  0  0  0  0  0  0  0
   16.9152   -3.4277   -2.1066 C   0  0  0  0  0  3  0  0  0  0  0  0
   16.8007   -1.9451   -2.3655 C   0  0  0  0  0  0  0  0  0  0  0  0
   15.5197   -1.6420   -3.1546 C   0  0  0  0  0  0  0  0  0  0  0  0
   15.9575   -1.2961   -4.5549 C   0  0  1  0  0  0  0  0  0  0  0  0
   17.1269   -2.2192   -4.8870 C   0  0  2  0  0  0  0  0  0  0  0  0
   18.1092   -1.5017   -5.7827 C   0  0  0  0  0  3  0  0  0  0  0  0
   18.3539   -0.1088   -5.2595 C   0  0  0  0  0  0  0  0  0  0  0  0
   19.8108    0.0753   -5.1006 C   0  0  0  0  0  0  0  0  0  0  0  0
   20.3953    0.0436   -3.8139 N   0  0  0  0  0  1  0  0  0  0  0  0
   20.5302    0.2618   -6.1283 N   0  0  0  0  0  2  0  0  0  0  0  0
   14.9284   -1.3806   -5.5823 C   0  0  1  0  0  0  0  0  0  0  0  0
   13.6483   -1.1402   -5.2736 O   0  0  0  0  0  0  0  0  0  0  0  0
   15.3070   -1.6703   -6.9592 C   0  0  0  0  0  3  0  0  0  0  0  0
   16.3166   -2.8183   -7.1012 C   0  0  0  0  0  0  0  0  0  0  0  0
   16.5199   -3.3568   -5.7189 C   0  0  2  0  0  0  0  0  0  0  0  0
   15.1634   -3.7346   -5.1635 C   0  0  0  0  0  0  0  0  0  0  0  0
   17.4405   -4.5174   -5.6291 C   0  0  2  0  0  0  0  0  0  0  0  0
   17.1747   -5.6086   -6.6096 C   0  0  2  0  0  0  0  0  0  0  0  0
   15.7579   -6.1556   -6.5230 C   0  0  0  0  0  0  0  0  0  0  0  0
   17.4925   -5.2321   -8.0255 C   0  0  0  0  0  2  0  0  0  0  0  0
  1  2  1  0
  2  3  1  6
  2  4  1  0
  5  4  1  6
  5  6  1  0
  6  7  1  0
  7  8  1  6
  7  9  1  0
  9 10  1  0
 10 11  1  0
 12 11  1  1
 12 13  1  0
 13 14  1  6
 14 15  1  0
 15 16  1  0
 16 17  1  0
 16 18  2  0
 12 19  1  0
 19 20  1  6
 19 21  1  0
 21 22  1  0
 22 23  1  0
 23 24  1  1
 23 25  1  0
 25 26  1  6
 26 27  1  6
 26 28  1  0
 26  1  1  0
 25  5  1  0
 23 13  1  0
M  CHG  2  17   1  18  -1
M  RAD  5   9   2  14   2  17   2  21   2  28   3
M  END
>  <docking_score>  (2) 
-6.0579999999999998

$$$$

     RDKit          3D

 28 30  0  0  0  0  0  0  0  0999 V2000
   18.9386   -7.1714   -6.1288 C   0  0  0  0  0  0  0  0  0  0  0  0
   18.0094   -7.8380   -5.1369 C   0  0  2  0  0  0  0  0  0  0  0  0
   17.2097   -8.8740   -5.9238 C   0  0  0  0  0  0  0  0  0  0  0  0
   17.0169   -6.8595   -4.5718 C   0  0  0  0  0  0  0  0  0  0  0  0
   17.6182   -5.5141   -4.3823 C   0  0  1  0  0  0  0  0  0  0  0  0
   18.5043   -5.3670   -3.2029 C   0  0  0  0  0  0  0  0  0  0  0  0
   17.9688   -4.4758   -2.1255 C   0  0  1  0  0  0  0  0  0  0  0  0
   18.9452   -3.4585   -1.6370 C   0  0  0  0  0  0  0  0  0  0  0  0
   16.6077   -3.9164   -2.4216 C   0  0  0  0  0  3  0  0  0  0  0  0
   16.6168   -2.4229   -2.6399 C   0  0  0  0  0  0  0  0  0  0  0  0
   15.6536   -2.0470   -3.7742 C   0  0  0  0  0  0  0  0  0  0  0  0
   16.5148   -1.6719   -4.9531 C   0  0  1  0  0  0  0  0  0  0  0  0
   17.7060   -2.6263   -4.9446 C   0  0  2  0  0  0  0  0  0  0  0  0
   18.9362   -1.9167   -5.4594 C   0  0  0  0  0  3  0  0  0  0  0  0
   19.2608   -0.7453   -4.5671 C   0  0  0  0  0  0  0  0  0  0  0  0
   20.0680    0.2171   -5.3441 C   0  0  0  0  0  0  0  0  0  0  0  0
   20.6538   -0.1728   -6.5701 N   0  0  0  0  0  1  0  0  0  0  0  0
   20.2297    1.3944   -4.9009 N   0  0  0  0  0  2  0  0  0  0  0  0
   15.8556   -1.6846   -6.2520 C   0  0  1  0  0  0  0  0  0  0  0  0
   14.5495   -1.4072   -6.3462 O   0  0  0  0  0  0  0  0  0  0  0  0
   16.6373   -1.9429   -7.4542 C   0  0  0  0  0  3  0  0  0  0  0  0
   17.6118   -3.1223   -7.3243 C   0  0  0  0  0  0  0  0  0  0  0  0
   17.3604   -3.7129   -5.9715 C   0  0  2  0  0  0  0  0  0  0  0  0
   15.8894   -4.0581   -5.8816 C   0  0  0  0  0  0  0  0  0  0  0  0
   18.1778   -4.9090   -5.6497 C   0  0  2  0  0  0  0  0  0  0  0  0
   18.2038   -5.9570   -6.7099 C   0  0  2  0  0  0  0  0  0  0  0  0
   16.8175   -6.4538   -7.0911 C   0  0  0  0  0  0  0  0  0  0  0  0
   18.9566   -5.5464   -7.9396 C   0  0  0  0  0  2  0  0  0  0  0  0
  1  2  1  0
  2  3  1  6
  2  4  1  0
  5  4  1  6
  5  6  1  0
  6  7  1  0
  7  8  1  6
  7  9  1  0
  9 10  1  0
 10 11  1  0
 12 11  1  1
 12 13  1  0
 13 14  1  6
 14 15  1  0
 15 16  1  0
 16 17  1  0
 16 18  2  0
 12 19  1  0
 19 20  1  6
 19 21  1  0
 21 22  1  0
 22 23  1  0
 23 24  1  6
 23 25  1  0
 25 26  1  6
 26 27  1  6
 26 28  1  0
 26  1  1  0
 25  5  1  0
 23 13  1  0
M  CHG  2  17   1  18  -1
M  RAD  5   9   2  14   2  17   2  21   2  28   3
M  END
>  <docking_score>  (3) 
-6.024

$$$$
