
     RDKit          3D

 31 32  0  0  0  0  0  0  0  0999 V2000
    6.3670   14.6448    4.1762 C   0  0  0  0  0  0  0  0  0  0  0  0
    6.8381   15.3784    3.0622 O   0  0  0  0  0  0  0  0  0  0  0  0
    8.1456   15.2561    2.6402 C   0  0  0  0  0  0  0  0  0  0  0  0
    8.5956   16.0598    1.7995 O   0  0  0  0  0  0  0  0  0  0  0  0
    8.9551   14.1623    3.2159 C   0  0  0  0  0  3  0  0  0  0  0  0
    8.1291   12.9688    3.5156 C   0  0  0  0  0  0  0  0  0  0  0  0
    6.8300   13.2182    4.1884 C   0  0  2  0  0  0  0  0  0  0  0  0
    5.8655   12.3600    3.6812 O   0  0  0  0  0  0  0  0  0  0  0  0
    6.1136   11.0244    3.8993 C   0  0  0  0  0  0  0  0  0  0  0  0
    5.8181   10.1999    2.6884 C   0  0  0  0  0  0  0  0  0  0  0  0
    4.3245   10.0261    2.5116 C   0  0  0  0  0  2  0  0  0  0  0  0
    6.9854   12.8589    5.5452 O   0  0  0  0  0  0  0  0  0  0  0  0
    5.4619   13.8337    6.1467 S   0  0  1  0  0  0  0  0  0  0  0  0
    4.4031   12.7124    6.9189 C   0  0  0  0  0  0  0  0  0  0  0  0
    4.6274   12.3936    8.1380 N   0  0  0  0  0  0  0  0  0  0  0  0
    3.8224   11.4834    8.8686 C   0  0  0  0  0  0  0  0  0  0  0  0
    2.4745   11.9392    9.0467 N   0  0  0  0  0  0  0  0  0  0  0  0
    2.4782   13.3636    9.2470 C   0  0  0  0  0  0  0  0  0  0  0  0
    2.4250   13.6571   10.7331 C   0  0  0  0  0  0  0  0  0  0  0  0
    3.8220   14.6660   11.2393 S   0  0  0  0  0  0  0  0  0  0  0  0
    3.7464   14.8718   13.0115 C   0  0  0  0  0  0  0  0  0  0  0  0
    4.3772   14.0267   13.8250 C   0  0  0  0  0  0  0  0  0  0  0  0
    5.1364   12.9263   13.3164 N   0  0  0  0  0  0  0  0  0  0  0  0
    6.5594   13.0456   13.2785 C   0  0  0  0  0  0  0  0  0  0  0  0
    7.0252   13.3073   11.8447 C   0  0  0  0  0  0  0  0  0  0  0  0
    7.7399   14.6615   11.8712 C   0  0  0  0  0  0  0  0  0  0  0  0
    8.0492   15.0963   10.4661 C   0  0  0  0  0  0  0  0  0  0  0  0
    6.8170   15.1916    9.7171 N   0  0  0  0  0  0  0  0  0  0  0  0
    6.9166   14.3260    8.5402 C   0  0  0  0  0  0  0  0  0  0  0  0
    6.0825   14.8928    7.4440 C   0  0  0  0  0  0  0  0  0  0  0  0
    5.8348   16.0730    7.4475 O   0  0  0  0  0  0  0  0  0  0  0  0
  1  2  1  0
  2  3  1  0
  3  4  2  0
  3  5  1  0
  5  6  1  0
  6  7  1  0
  7  8  1  6
  8  9  1  0
  9 10  1  0
 10 11  1  0
  7 12  1  0
 13 12  1  1
 13 14  1  0
 14 15  2  3
 15 16  1  0
 16 17  1  0
 17 18  1  0
 18 19  1  0
 19 20  1  0
 20 21  1  0
 21 22  2  3
 22 23  1  0
 23 24  1  0
 24 25  1  0
 25 26  1  0
 26 27  1  0
 27 28  1  0
 28 29  1  0
 29 30  1  0
 30 31  2  0
  7  1  1  0
 30 13  1  0
M  RAD  2   5   2  11   3
M  END
>  <docking_score>  (1) 
-3.3620000000000001

$$$$

     RDKit          3D

 31 32  0  0  0  0  0  0  0  0999 V2000
    6.6946   10.7112    4.1058 C   0  0  0  0  0  0  0  0  0  0  0  0
    5.9441    9.9082    3.2154 O   0  0  0  0  0  0  0  0  0  0  0  0
    4.6098    9.6514    3.4525 C   0  0  0  0  0  0  0  0  0  0  0  0
    4.0251    8.7786    2.7803 O   0  0  0  0  0  0  0  0  0  0  0  0
    3.9347   10.4365    4.5064 C   0  0  0  0  0  3  0  0  0  0  0  0
    4.4818   11.8106    4.6013 C   0  0  0  0  0  0  0  0  0  0  0  0
    5.9603   11.9352    4.5663 C   0  0  2  0  0  0  0  0  0  0  0  0
    6.3203   13.0571    3.8342 O   0  0  0  0  0  0  0  0  0  0  0  0
    7.5687   13.5565    4.1255 C   0  0  0  0  0  0  0  0  0  0  0  0
    7.6801   15.0069    3.7831 C   0  0  0  0  0  0  0  0  0  0  0  0
    6.7792   15.8369    4.6730 C   0  0  0  0  0  2  0  0  0  0  0  0
    6.3905   12.1874    5.8876 O   0  0  0  0  0  0  0  0  0  0  0  0
    4.6874   12.7828    6.5019 S   0  0  1  0  0  0  0  0  0  0  0  0
    4.1734   11.6929    7.7359 C   0  0  0  0  0  0  0  0  0  0  0  0
    4.6134   11.8591    8.9262 N   0  0  0  0  0  0  0  0  0  0  0  0
    4.2571   11.0238   10.0150 C   0  0  0  0  0  0  0  0  0  0  0  0
    2.8593   11.0741   10.3311 N   0  0  0  0  0  0  0  0  0  0  0  0
    2.3793   12.4173   10.1453 C   0  0  0  0  0  0  0  0  0  0  0  0
    2.3710   13.1319   11.4820 C   0  0  0  0  0  0  0  0  0  0  0  0
    3.3638   14.6271   11.4176 S   0  0  0  0  0  0  0  0  0  0  0  0
    3.3935   15.3460   13.0519 C   0  0  0  0  0  0  0  0  0  0  0  0
    4.3582   15.0372   13.9168 C   0  0  0  0  0  0  0  0  0  0  0  0
    5.4037   14.1229   13.5748 N   0  0  0  0  0  0  0  0  0  0  0  0
    6.6819   14.6562   13.2251 C   0  0  0  0  0  0  0  0  0  0  0  0
    6.8832   14.5836   11.7100 C   0  0  0  0  0  0  0  0  0  0  0  0
    7.0725   16.0280   11.2375 C   0  0  0  0  0  0  0  0  0  0  0  0
    7.0698   16.0717    9.7350 C   0  0  0  0  0  0  0  0  0  0  0  0
    5.8166   15.5423    9.2475 N   0  0  0  0  0  0  0  0  0  0  0  0
    6.1003   14.4256    8.3438 C   0  0  0  0  0  0  0  0  0  0  0  0
    5.0172   14.3329    7.3255 C   0  0  0  0  0  0  0  0  0  0  0  0
    4.3703   15.3175    7.0680 O   0  0  0  0  0  0  0  0  0  0  0  0
  1  2  1  0
  2  3  1  0
  3  4  2  0
  3  5  1  0
  5  6  1  0
  6  7  1  0
  7  8  1  6
  8  9  1  0
  9 10  1  0
 10 11  1  0
  7 12  1  0
 13 12  1  1
 13 14  1  0
 14 15  2  3
 15 16  1  0
 16 17  1  0
 17 18  1  0
 18 19  1  0
 19 20  1  0
 20 21  1  0
 21 22  2  3
 22 23  1  0
 23 24  1  0
 24 25  1  0
 25 26  1  0
 26 27  1  0
 27 28  1  0
 28 29  1  0
 29 30  1  0
 30 31  2  0
  7  1  1  0
 30 13  1  0
M  RAD  2   5   2  11   3
M  END
>  <docking_score>  (2) 
-2.5209999999999999

$$$$

     RDKit          3D

 31 32  0  0  0  0  0  0  0  0999 V2000
    4.7070   12.8024   12.5307 C   0  0  0  0  0  0  0  0  0  0  0  0
    4.0460   12.0284   13.5130 O   0  0  0  0  0  0  0  0  0  0  0  0
    4.2539   10.6672   13.5947 C   0  0  0  0  0  0  0  0  0  0  0  0
    3.5105    9.9764   14.3196 O   0  0  0  0  0  0  0  0  0  0  0  0
    5.3636   10.0921   12.8067 C   0  0  0  0  0  3  0  0  0  0  0  0
    6.4988   11.0374   12.6882 C   0  0  0  0  0  0  0  0  0  0  0  0
    6.1541   12.4444   12.3652 C   0  0  2  0  0  0  0  0  0  0  0  0
    6.9811   13.3052   13.0716 O   0  0  0  0  0  0  0  0  0  0  0  0
    8.3225   13.0111   12.9867 C   0  0  0  0  0  0  0  0  0  0  0  0
    9.1166   14.1779   12.4954 C   0  0  0  0  0  0  0  0  0  0  0  0
    9.6555   13.9106   11.1060 C   0  0  0  0  0  2  0  0  0  0  0  0
    6.4642   12.6492   11.0027 O   0  0  0  0  0  0  0  0  0  0  0  0
    4.6497   12.8316   10.4489 S   0  0  1  0  0  0  0  0  0  0  0  0
    4.5108   14.3391    9.6226 C   0  0  0  0  0  0  0  0  0  0  0  0
    4.8486   14.3985    8.3896 N   0  0  0  0  0  0  0  0  0  0  0  0
    4.7751   15.5839    7.6153 C   0  0  0  0  0  0  0  0  0  0  0  0
    3.4366   16.0740    7.4591 N   0  0  0  0  0  0  0  0  0  0  0  0
    2.5361   14.9600    7.3283 C   0  0  0  0  0  0  0  0  0  0  0  0
    2.2647   14.7096    5.8583 C   0  0  0  0  0  0  0  0  0  0  0  0
    2.6978   13.0273    5.4023 S   0  0  0  0  0  0  0  0  0  0  0  0
    2.4556   12.8481    3.6421 C   0  0  0  0  0  0  0  0  0  0  0  0
    3.4527   13.0744    2.7887 C   0  0  0  0  0  0  0  0  0  0  0  0
    4.7506   13.4678    3.2434 N   0  0  0  0  0  0  0  0  0  0  0  0
    5.7809   12.4793    3.2876 C   0  0  0  0  0  0  0  0  0  0  0  0
    6.0211   12.0371    4.7325 C   0  0  0  0  0  0  0  0  0  0  0  0
    5.7218   10.5358    4.7722 C   0  0  0  0  0  0  0  0  0  0  0  0
    5.7306   10.0570    6.1970 C   0  0  0  0  0  0  0  0  0  0  0  0
    4.7371   10.7888    6.9493 N   0  0  0  0  0  0  0  0  0  0  0  0
    5.3956   11.4416    8.0827 C   0  0  0  0  0  0  0  0  0  0  0  0
    4.4246   11.5700    9.2049 C   0  0  0  0  0  0  0  0  0  0  0  0
    3.4888   10.8113    9.2587 O   0  0  0  0  0  0  0  0  0  0  0  0
  1  2  1  0
  2  3  1  0
  3  4  2  0
  3  5  1  0
  5  6  1  0
  6  7  1  0
  7  8  1  1
  8  9  1  0
  9 10  1  0
 10 11  1  0
  7 12  1  0
 13 12  1  6
 13 14  1  0
 14 15  2  3
 15 16  1  0
 16 17  1  0
 17 18  1  0
 18 19  1  0
 19 20  1  0
 20 21  1  0
 21 22  2  3
 22 23  1  0
 23 24  1  0
 24 25  1  0
 25 26  1  0
 26 27  1  0
 27 28  1  0
 28 29  1  0
 29 30  1  0
 30 31  2  0
  7  1  1  0
 30 13  1  0
M  RAD  2   5   2  11   3
M  END
>  <docking_score>  (3) 
-1.734

$$$$
