
     RDKit          3D

 30 30  0  0  0  0  0  0  0  0999 V2000
    2.7036    5.2339    1.9667 C   0  0  0  0  0  0  0  0  0  0  0  0
    2.6989    6.7012    2.3381 C   0  0  0  0  0  0  0  0  0  0  0  0
    4.0619    7.0878    2.7938 C   0  0  0  0  0  0  0  0  0  0  0  0
    4.0897    7.9201    4.0289 C   0  0  1  0  0  0  0  0  0  0  0  0
    5.2233    7.5380    4.8954 C   0  0  0  0  0  0  0  0  0  0  0  0
    5.2218    6.0277    5.0267 C   0  0  0  0  0  0  0  0  0  0  0  0
    3.8427    5.5128    5.3974 C   0  0  0  0  0  0  0  0  0  0  0  0
    3.1215    6.5029    6.2493 C   0  0  0  0  0  0  0  0  0  0  0  0
    3.6995    7.3932    6.9028 N   0  0  0  0  0  0  0  0  0  0  0  0
    3.4100    8.4258    7.7488 C   0  0  0  0  0  0  0  0  0  0  0  0
    2.2723    8.5736    8.7164 C   0  0  0  0  0  0  0  0  0  0  0  0
    4.2371    9.5121    7.7802 C   0  0  0  0  0  0  0  0  0  0  0  0
    5.3928    9.5645    6.9376 C   0  0  0  0  0  0  0  0  0  0  0  0
    5.4404    9.9072    5.6648 C   0  0  0  0  0  0  0  0  0  0  0  0
    7.2068    9.8467    4.8890 Br  0  0  0  0  0  0  0  0  0  0  0  0
    4.3390   10.3174    4.8170 C   0  0  0  0  0  0  0  0  0  0  0  0
    3.7817    9.3463    3.8577 C   0  0  2  0  0  0  0  0  0  0  0  0
    2.2645    9.6137    3.8034 C   0  0  0  0  0  0  0  0  0  0  0  0
    4.2344    9.7401    2.5487 O   0  0  0  0  0  0  0  0  0  0  0  0
    4.7548   10.9611    2.2469 C   0  0  0  0  0  0  0  0  0  0  0  0
    5.9966   11.2034    1.8487 C   0  0  0  0  0  0  0  0  0  0  0  0
    6.3216   12.6317    1.5796 C   0  0  0  0  0  0  0  0  0  0  0  0
    6.0013   13.4692    2.7287 C   0  0  0  0  0  0  0  0  0  0  0  0
    5.7190   14.1590    3.6882 C   0  0  0  0  0  0  0  0  0  0  0  0
    5.3787   14.9302    4.7628 O   0  0  0  0  0  0  0  0  0  0  0  0
    6.1964   16.0721    5.0275 C   0  0  0  0  0  0  0  0  0  0  0  0
    7.4082   16.0741    4.1449 C   0  0  0  0  0  0  0  0  0  0  0  0
    8.5865   15.6404    4.5801 C   0  0  0  0  0  0  0  0  0  0  0  0
    8.6946   15.1459    5.9713 C   0  0  0  0  0  0  0  0  0  0  0  0
   10.0886   15.6617    3.4330 Br  0  0  0  0  0  0  0  0  0  0  0  0
  1  2  1  0
  2  3  1  0
  4  3  1  6
  4  5  1  0
  5  6  1  0
  6  7  1  0
  7  8  1  0
  8  9  2  3
  9 10  1  0
 10 11  1  0
 10 12  2  3
 12 13  1  0
 13 14  2  3
 14 15  1  0
 14 16  1  0
 16 17  1  0
 17 18  1  6
 17 19  1  0
 19 20  1  0
 20 21  2  3
 21 22  1  0
 22 23  1  0
 23 24  3  0
 24 25  1  0
 25 26  1  0
 26 27  1  0
 27 28  2  3
 28 29  1  0
 28 30  1  0
 17  4  1  0
M  END
>  <docking_score>  (1) 
-3.6589999999999998

$$$$
