
     RDKit          3D

 76 76  0  0  0  0  0  0  0  0999 V2000
   20.9300   -2.6589   -5.6859 C   0  0  0  0  0  0  0  0  0  0  0  0
   19.7450   -3.4775   -6.1046 C   0  0  0  0  0  0  0  0  0  0  0  0
   19.3254   -3.5080   -7.5444 C   0  0  0  0  0  0  0  0  0  0  0  0
   18.9794   -4.2658   -5.0835 C   0  0  0  0  0  0  0  0  0  0  0  0
   17.5371   -4.6015   -5.3222 C   0  0  0  0  0  0  0  0  0  0  0  0
   16.4595   -3.7787   -4.6806 C   0  0  0  0  0  0  0  0  0  0  0  0
   15.5333   -4.4045   -3.6802 C   0  0  0  0  0  0  0  0  0  0  0  0
   14.2911   -3.6806   -3.2529 C   0  0  0  0  0  0  0  0  0  0  0  0
   15.8495   -5.7542   -3.1072 C   0  0  0  0  0  3  0  0  0  0  0  0
   15.2624   -6.1658   -1.7896 C   0  0  0  0  0  0  0  0  0  0  0  0
   13.7979   -6.4723   -1.6841 C   0  0  0  0  0  0  0  0  0  0  0  0
   13.0760   -6.2477   -0.3884 C   0  0  0  0  0  0  0  0  0  0  0  0
   12.0197   -7.2141    0.0589 C   0  0  0  0  0  0  0  0  0  0  0  0
   13.4106   -5.0566    0.4597 C   0  0  0  0  0  0  0  0  0  0  0  0
   14.4145   -4.0514   -0.0215 C   0  0  0  0  0  0  0  0  0  0  0  0
   13.6877   -2.7709   -0.3079 C   0  0  0  0  0  0  0  0  0  0  0  0
   15.7619   -4.7105   -0.0324 C   0  0  0  0  0  0  0  0  0  0  0  0
   17.2151   -4.4967   -0.3366 C   0  0  0  0  0  0  0  0  0  0  0  0
   18.2190   -3.4914   -0.8178 C   0  0  0  0  0  0  0  0  0  0  0  0
   18.9459   -4.7718   -0.5314 O   0  0  0  0  0  0  0  0  0  0  0  0
   19.6722   -3.2775   -1.1220 C   0  0  0  0  0  0  0  0  0  0  0  0
   18.3903   -2.0788   -1.2922 C   0  0  0  0  0  0  0  0  0  0  0  0
   17.6634   -0.7982   -1.5787 O   0  0  0  0  0  0  0  0  0  0  0  0
   16.3160   -0.1391   -1.5677 O   0  0  0  0  0  0  0  0  0  0  0  0
   14.8628   -0.3529   -1.2635 N   0  0  0  0  0  0  0  0  0  0  0  0
   13.8589   -1.3582   -0.7824 C   0  0  0  0  0  0  0  0  0  0  0  0
   12.4058   -1.5721   -0.4782 C   0  0  0  0  0  0  0  0  0  0  0  0
   13.1320   -0.0778   -1.0688 C   0  0  0  0  0  3  0  0  0  0  0  0
   13.7190    0.9209   -2.0218 O   0  0  0  0  0  0  0  0  0  0  0  0
   12.9691    1.3033   -3.2633 C   0  0  0  0  0  0  0  0  0  0  0  0
   11.9073    2.3612   -3.2021 C   0  0  0  0  0  0  0  0  0  0  0  0
   13.2808    0.6281   -4.5659 C   0  0  0  0  0  0  0  0  0  0  0  0
   14.5256   -0.1975   -4.7037 C   0  0  0  0  0  2  0  0  0  0  0  0
   12.3477    0.7784   -5.7307 C   0  0  0  0  0  0  0  0  0  0  0  0
   11.7390   -0.4366   -6.3657 C   0  0  0  0  0  0  0  0  0  0  0  0
   12.4591   -1.1431   -7.4757 C   0  0  0  0  0  0  0  0  0  0  0  0
   10.4102   -0.9450   -5.8906 C   0  0  0  0  0  0  0  0  0  0  0  0
    9.9031   -0.5624   -4.5318 C   0  0  0  0  0  0  0  0  0  0  0  0
    8.4584   -0.2051   -4.3437 C   0  0  0  0  0  0  0  0  0  0  0  0
    7.4750   -1.2557   -3.9203 F   0  0  0  0  0  0  0  0  0  0  0  0
    7.9971    1.2027   -4.5788 C   0  0  0  0  0  0  0  0  0  0  0  0
    7.0589    1.5055   -5.7093 O   0  0  0  0  0  0  0  0  0  0  0  0
    8.4741    2.3077   -3.6835 C   0  0  0  0  0  3  0  0  0  0  0  0
    8.0670    3.7248   -3.9592 C   0  0  0  0  0  0  0  0  0  0  0  0
    8.8280    4.5425   -4.9603 F   0  0  0  0  0  0  0  0  0  0  0  0
    6.8988    4.3242   -3.2339 C   0  0  0  0  0  0  0  0  0  0  0  0
    7.0688    4.8408   -1.8359 O   0  0  0  0  0  0  0  0  0  0  0  0
    6.1769    4.3414   -0.7382 C   0  0  0  0  0  0  0  0  0  0  0  0
    5.1404    5.2478   -0.1433 C   0  0  0  0  0  0  0  0  0  0  0  0
    4.3942    4.8275    1.0883 C   0  0  0  0  0  0  0  0  0  0  0  0
    5.2889    5.6927    1.9255 C   0  0  0  0  0  2  0  0  0  0  0  0
    3.4996    3.9623    0.2510 C   0  0  0  0  0  2  0  0  0  0  0  0
    3.6481    4.4072    2.3198 C   0  0  0  0  0  3  0  0  0  0  0  0
    3.5144    2.9514    2.6554 F   0  0  0  0  0  0  0  0  0  0  0  0
    3.0358    5.4427    3.2158 C   0  0  0  0  0  0  0  0  0  0  0  0
    3.1017    6.8934    2.8398 C   0  0  0  0  0  0  0  0  0  0  0  0
    3.3831    7.9280    3.8888 C   0  0  0  0  0  0  0  0  0  0  0  0
    2.2593    8.7386    4.4632 C   0  0  0  0  0  2  0  0  0  0  0  0
    4.7882    8.1520    4.3634 C   0  0  0  0  0  0  0  0  0  0  0  0
    5.1485    9.4280    5.0648 C   0  0  0  0  0  0  0  0  0  0  0  0
    5.5962   10.6195    4.2711 C   0  0  0  0  0  0  0  0  0  0  0  0
    4.7599   11.1179    3.1300 C   0  0  0  0  0  0  0  0  0  0  0  0
    4.0464   12.4326    3.2412 C   0  0  0  0  0  0  0  0  0  0  0  0
    4.2102   13.2730    4.4727 C   0  0  0  0  0  2  0  0  0  0  0  0
    3.1690   12.9069    2.1207 O   0  0  0  0  0  0  0  0  0  0  0  0
    6.8803   11.3126    4.6185 C   0  0  0  0  0  0  0  0  0  0  0  0
    8.0219   11.3083    3.6455 C   0  0  0  0  0  3  0  0  0  0  0  0
    8.4984   10.0147    3.0541 C   0  0  0  0  0  0  0  0  0  0  0  0
    9.3411    9.0814    3.8721 C   0  0  0  0  0  0  0  0  0  0  0  0
    9.6117    9.3856    5.3158 C   0  0  0  0  0  0  0  0  0  0  0  0
    9.9887   10.7768    5.7312 N   0  0  0  0  0  0  0  0  0  0  0  0
    9.5052    8.2986    6.3439 C   0  0  0  0  0  0  0  0  0  0  0  0
   10.3127    8.3781    7.6056 C   0  0  0  0  0  2  0  0  0  0  0  0
    8.5914    7.1323    6.1105 C   0  0  0  0  0  0  0  0  0  0  0  0
    7.6295    7.1517    4.9597 N   0  0  0  0  0  0  0  0  0  0  0  0
    6.5543    6.1103    4.8632 C   0  0  0  0  0  0  0  0  0  0  0  0
  1  2  1  0
  2  3  1  0
  2  4  1  0
  4  5  1  0
  5  6  1  0
  6  7  1  0
  7  8  1  0
  7  9  1  0
  9 10  1  0
 10 11  1  0
 11 12  1  0
 12 13  1  0
 12 14  1  0
 14 15  1  0
 15 16  1  0
 15 17  1  0
 17 18  1  0
 18 19  1  0
 19 20  1  0
 19 21  1  0
 19 22  1  0
 22 23  1  0
 23 24  1  0
 24 25  1  0
 25 26  1  0
 26 27  1  0
 26 28  1  0
 28 29  1  0
 29 30  1  0
 30 31  1  0
 30 32  1  0
 32 33  1  0
 32 34  1  0
 34 35  1  0
 35 36  1  0
 35 37  1  0
 37 38  1  0
 38 39  1  0
 39 40  1  0
 39 41  1  0
 41 42  1  0
 41 43  1  0
 43 44  1  0
 44 45  1  0
 44 46  1  0
 46 47  1  0
 47 48  1  0
 48 49  1  0
 49 50  1  0
 50 51  1  0
 50 52  1  0
 50 53  1  0
 53 54  1  0
 53 55  1  0
 55 56  1  0
 56 57  1  0
 57 58  1  0
 57 59  1  0
 59 60  1  0
 60 61  1  0
 61 62  1  0
 62 63  1  0
 63 64  1  0
 63 65  1  0
 61 66  1  0
 66 67  1  0
 67 68  1  0
 68 69  1  0
 69 70  1  0
 70 71  1  0
 70 72  1  0
 72 73  1  0
 72 74  1  0
 74 75  1  0
 75 76  1  0
 26 16  1  0
M  RAD  8   9   2  28   2  33   3  43   2  51   3  52   3  53   2  58   3
M  RAD  3  64   3  67   2  73   3
M  END
>  <docking_score>  (1) 
72.468999999999994

$$$$
