
     RDKit          3D

 30 33  0  0  0  0  0  0  0  0999 V2000
    5.7932   12.9691    4.0338 C   0  0  1  0  0  0  0  0  0  0  0  0
    4.8023   12.1263    4.6278 O   0  0  0  0  0  0  0  0  0  0  0  0
    4.4788   12.1685    5.9448 C   0  0  0  0  0  0  0  0  0  0  0  0
    4.2848   11.1171    6.6786 C   0  0  0  0  0  0  0  0  0  0  0  0
    4.3461    9.7925    6.3592 C   0  0  0  0  0  0  0  0  0  0  0  0
    4.3089    8.6043    6.8548 C   0  0  0  0  0  0  0  0  0  0  0  0
    4.4249    7.3909    6.0565 C   0  0  0  0  0  0  0  0  0  0  0  0
    5.5626    7.2547    5.0160 C   0  0  0  0  0  0  0  0  0  0  0  0
    3.5461    6.4305    6.1526 C   0  0  0  0  0  0  0  0  0  0  0  0
    3.0979    5.4891    5.0615 C   0  0  0  0  0  0  0  0  0  0  0  0
    3.1158    5.8218    3.7634 C   0  0  0  0  0  0  0  0  0  0  0  0
    2.2575    5.0652    2.8208 C   0  0  0  0  0  0  0  0  0  0  0  0
    3.9467    6.9257    3.1418 C   0  0  0  0  0  0  0  0  0  0  0  0
    4.7379    7.7287    3.8028 C   0  0  0  0  0  0  0  0  0  0  0  0
    4.7629    9.1482    3.4569 C   0  0  0  0  0  0  0  0  0  0  0  0
    6.0175    9.7628    3.5885 C   0  0  0  0  0  0  0  0  0  0  0  0
    6.7997   10.5080    4.1208 C   0  0  0  0  0  0  0  0  0  0  0  0
    6.9997   11.3986    5.1283 O   0  0  0  0  0  0  0  0  0  0  0  0
    6.8996   12.8532    4.9937 C   0  0  1  0  0  0  0  0  0  0  0  0
    8.1906   13.4326    4.5174 C   0  0  0  0  0  0  0  0  0  0  0  0
    8.5593   14.7354    5.1787 C   0  0  0  0  0  0  0  0  0  0  0  0
    3.5860    9.6703    3.0616 C   0  0  0  0  0  0  0  0  0  0  0  0
    3.3684   10.9959    2.7016 N   0  0  0  0  0  0  0  0  0  0  0  0
    3.9552   11.9000    2.1517 C   0  0  0  0  0  0  0  0  0  0  0  0
    5.5958   11.6862    1.5250 S   0  0  0  0  0  0  0  0  0  0  0  0
    6.4300   12.3706    2.7813 C   0  0  0  0  0  0  0  0  0  0  0  0
    3.4026   13.2979    2.1688 C   0  0  0  0  0  0  0  0  0  0  0  0
    3.7858   13.9634    3.3197 O   0  0  0  0  0  0  0  0  0  0  0  0
    5.1247   14.1577    3.5831 C   0  0  1  0  0  0  0  0  0  0  0  0
    5.2853   15.3911    4.4445 C   0  0  0  0  0  0  0  0  0  0  0  0
  1  2  1  1
  2  3  1  0
  3  4  2  3
  4  5  1  0
  5  6  2  3
  6  7  1  0
  7  8  1  0
  7  9  2  0
  9 10  1  0
 10 11  2  0
 11 12  1  0
 11 13  1  0
 13 14  2  0
 14 15  1  0
 15 16  1  0
 16 17  2  3
 17 18  1  0
 18 19  1  0
 19 20  1  6
 20 21  1  0
 15 22  2  3
 22 23  1  0
 23 24  2  3
 24 25  1  0
 25 26  2  0
 24 27  1  0
 27 28  1  0
 28 29  1  0
 29 30  1  1
 19  1  1  0
 26  1  1  0
 29  1  1  0
 14  8  1  0
M  END
>  <docking_score>  (1) 
-4.9450000000000003

$$$$

     RDKit          3D

 30 33  0  0  0  0  0  0  0  0999 V2000
   18.7025   -2.4784   -3.8446 C   0  0  1  0  0  0  0  0  0  0  0  0
   19.3289   -3.7616   -3.9241 O   0  0  0  0  0  0  0  0  0  0  0  0
   20.6706   -3.9317   -4.0329 C   0  0  0  0  0  0  0  0  0  0  0  0
   21.2314   -4.7888   -4.8281 C   0  0  0  0  0  0  0  0  0  0  0  0
   20.6778   -5.6798   -5.6999 C   0  0  0  0  0  0  0  0  0  0  0  0
   20.9531   -6.5264   -6.6307 C   0  0  0  0  0  0  0  0  0  0  0  0
   19.9468   -7.3120   -7.3330 C   0  0  0  0  0  0  0  0  0  0  0  0
   18.6880   -6.6199   -7.9091 C   0  0  0  0  0  0  0  0  0  0  0  0
   20.0501   -8.6092   -7.4349 C   0  0  0  0  0  0  0  0  0  0  0  0
   18.9255   -9.6140   -7.4925 C   0  0  0  0  0  0  0  0  0  0  0  0
   17.7307   -9.3990   -6.9246 C   0  0  0  0  0  0  0  0  0  0  0  0
   16.8657  -10.5636   -6.6195 C   0  0  0  0  0  0  0  0  0  0  0  0
   17.1567   -8.0480   -6.5499 C   0  0  0  0  0  0  0  0  0  0  0  0
   17.7724   -6.9055   -6.7021 C   0  0  0  0  0  0  0  0  0  0  0  0
   17.6846   -5.9022   -5.6434 C   0  0  0  0  0  0  0  0  0  0  0  0
   17.6626   -4.5734   -6.0937 C   0  0  0  0  0  0  0  0  0  0  0  0
   18.1462   -3.4809   -6.2453 C   0  0  0  0  0  0  0  0  0  0  0  0
   19.2322   -2.6908   -6.0342 O   0  0  0  0  0  0  0  0  0  0  0  0
   19.3796   -1.7472   -4.9244 C   0  0  1  0  0  0  0  0  0  0  0  0
   18.7586   -0.4314   -5.2598 C   0  0  0  0  0  0  0  0  0  0  0  0
   19.7192    0.7287   -5.2177 C   0  0  0  0  0  0  0  0  0  0  0  0
   17.6372   -6.3861   -4.3874 C   0  0  0  0  0  0  0  0  0  0  0  0
   17.5689   -5.6220   -3.2273 N   0  0  0  0  0  0  0  0  0  0  0  0
   17.0787   -4.5834   -2.8466 C   0  0  0  0  0  0  0  0  0  0  0  0
   16.1014   -3.5769   -3.9247 S   0  0  0  0  0  0  0  0  0  0  0  0
   17.2606   -2.4726   -4.3480 C   0  0  0  0  0  0  0  0  0  0  0  0
   17.4548   -3.9988   -1.5138 C   0  0  0  0  0  0  0  0  0  0  0  0
   18.6017   -3.2321   -1.6197 O   0  0  0  0  0  0  0  0  0  0  0  0
   18.6152   -2.1343   -2.4530 C   0  0  1  0  0  0  0  0  0  0  0  0
   19.6290   -1.1358   -1.9389 C   0  0  0  0  0  0  0  0  0  0  0  0
  1  2  1  1
  2  3  1  0
  3  4  2  3
  4  5  1  0
  5  6  2  3
  6  7  1  0
  7  8  1  0
  7  9  2  0
  9 10  1  0
 10 11  2  0
 11 12  1  0
 11 13  1  0
 13 14  2  0
 14 15  1  0
 15 16  1  0
 16 17  2  3
 17 18  1  0
 18 19  1  0
 19 20  1  6
 20 21  1  0
 15 22  2  3
 22 23  1  0
 23 24  2  3
 24 25  1  0
 25 26  2  0
 24 27  1  0
 27 28  1  0
 28 29  1  0
 29 30  1  1
 19  1  1  0
 26  1  1  0
 29  1  1  0
 14  8  1  0
M  END
>  <docking_score>  (2) 
-4.835

$$$$

     RDKit          3D

 30 33  0  0  0  0  0  0  0  0999 V2000
   20.0397   -6.2910   -5.4166 C   0  0  1  0  0  0  0  0  0  0  0  0
   18.7821   -6.0465   -4.7812 O   0  0  0  0  0  0  0  0  0  0  0  0
   17.8425   -7.0067   -4.5915 C   0  0  0  0  0  0  0  0  0  0  0  0
   16.5732   -6.8293   -4.7888 C   0  0  0  0  0  0  0  0  0  0  0  0
   15.8891   -5.7252   -5.2052 C   0  0  0  0  0  0  0  0  0  0  0  0
   14.7283   -5.3013   -5.5683 C   0  0  0  0  0  0  0  0  0  0  0  0
   14.4554   -3.9237   -5.9564 C   0  0  0  0  0  0  0  0  0  0  0  0
   15.3762   -3.2097   -6.9751 C   0  0  0  0  0  0  0  0  0  0  0  0
   13.4800   -3.2476   -5.4130 C   0  0  0  0  0  0  0  0  0  0  0  0
   13.4302   -1.7613   -5.1559 C   0  0  0  0  0  0  0  0  0  0  0  0
   14.5295   -1.0239   -4.9467 C   0  0  0  0  0  0  0  0  0  0  0  0
   14.3924    0.2827   -4.2601 C   0  0  0  0  0  0  0  0  0  0  0  0
   15.9405   -1.4003   -5.3505 C   0  0  0  0  0  0  0  0  0  0  0  0
   16.2782   -2.5208   -5.9318 C   0  0  0  0  0  0  0  0  0  0  0  0
   17.4954   -3.2068   -5.5039 C   0  0  0  0  0  0  0  0  0  0  0  0
   18.1868   -3.8706   -6.5288 C   0  0  0  0  0  0  0  0  0  0  0  0
   18.5677   -4.8567   -7.1058 C   0  0  0  0  0  0  0  0  0  0  0  0
   18.5679   -6.2159   -7.1337 O   0  0  0  0  0  0  0  0  0  0  0  0
   19.6332   -7.0653   -6.5974 C   0  0  1  0  0  0  0  0  0  0  0  0
   20.7155   -7.2611   -7.6072 C   0  0  0  0  0  0  0  0  0  0  0  0
   20.9887   -8.7047   -7.9414 C   0  0  0  0  0  0  0  0  0  0  0  0
   17.7862   -3.1095   -4.1925 C   0  0  0  0  0  0  0  0  0  0  0  0
   18.8793   -3.6920   -3.5601 N   0  0  0  0  0  0  0  0  0  0  0  0
   20.0355   -3.9581   -3.7976 C   0  0  0  0  0  0  0  0  0  0  0  0
   20.7694   -3.5629   -5.3582 S   0  0  0  0  0  0  0  0  0  0  0  0
   20.6410   -5.0506   -6.0741 C   0  0  0  0  0  0  0  0  0  0  0  0
   20.8327   -4.8245   -2.8629 C   0  0  0  0  0  0  0  0  0  0  0  0
   20.6339   -6.1642   -3.1452 O   0  0  0  0  0  0  0  0  0  0  0  0
   20.9711   -6.6584   -4.3869 C   0  0  1  0  0  0  0  0  0  0  0  0
   21.2942   -8.1311   -4.2621 C   0  0  0  0  0  0  0  0  0  0  0  0
  1  2  1  1
  2  3  1  0
  3  4  2  3
  4  5  1  0
  5  6  2  3
  6  7  1  0
  7  8  1  0
  7  9  2  0
  9 10  1  0
 10 11  2  0
 11 12  1  0
 11 13  1  0
 13 14  2  0
 14 15  1  0
 15 16  1  0
 16 17  2  3
 17 18  1  0
 18 19  1  0
 19 20  1  6
 20 21  1  0
 15 22  2  3
 22 23  1  0
 23 24  2  3
 24 25  1  0
 25 26  2  0
 24 27  1  0
 27 28  1  0
 28 29  1  0
 29 30  1  1
 19  1  1  0
 26  1  1  0
 29  1  1  0
 14  8  1  0
M  END
>  <docking_score>  (3) 
-4.5410000000000004

$$$$
