
     RDKit          3D

 25 25  0  0  0  0  0  0  0  0999 V2000
   19.2860   -7.4357   -3.6413 C   0  0  0  0  0  0  0  0  0  0  0  0
   18.3086   -7.5198   -4.8101 C   0  0  0  0  0  0  0  0  0  0  0  0
   18.9131   -8.3901   -5.9066 C   0  0  0  0  0  0  0  0  0  0  0  0
   18.0148   -6.1159   -5.3454 C   0  0  0  0  0  0  0  0  0  0  0  0
   17.0326   -6.2310   -6.4975 C   0  0  0  0  0  0  0  0  0  0  0  0
   15.6929   -6.6520   -5.9683 C   0  0  0  0  0  0  0  0  0  0  0  0
   14.5696   -5.7680   -6.4664 C   0  0  1  0  0  0  0  0  0  0  0  0
   13.5334   -5.6706   -5.3847 C   0  0  0  0  0  0  0  0  0  0  0  0
   15.0554   -4.3652   -6.7632 C   0  0  0  0  0  3  0  0  0  0  0  0
   14.8706   -3.5474   -5.5195 C   0  0  0  0  0  0  0  0  0  0  0  0
   16.1456   -3.1742   -4.8434 C   0  0  2  0  0  0  0  0  0  0  0  0
   16.0530   -2.9708   -3.3787 C   0  0  2  0  0  0  0  0  0  0  0  0
   15.9860   -1.5502   -2.9356 C   0  0  0  0  0  0  0  0  0  0  0  0
   17.0089   -3.7990   -2.5881 C   0  0  0  0  0  3  0  0  0  0  0  0
   18.1293   -3.0243   -1.9777 C   0  0  0  0  0  0  0  0  0  0  0  0
   19.3434   -3.9539   -1.9070 C   0  0  2  0  0  0  0  0  0  0  0  0
   20.2156   -3.5248   -0.7651 C   0  0  0  0  0  0  0  0  0  0  0  0
   20.0847   -3.8823   -3.2254 C   0  0  0  0  0  0  0  0  0  0  0  0
   20.5327   -2.4530   -3.4145 C   0  0  0  0  0  0  0  0  0  0  0  0
   19.3459   -1.5225   -3.4586 C   0  0  1  0  0  0  0  0  0  0  0  0
   19.4828   -0.4165   -2.6550 O   0  0  0  0  0  0  0  0  0  0  0  0
   19.0401   -1.1879   -4.9009 C   0  0  0  0  0  0  0  0  0  0  0  0
   18.3900   -2.3415   -5.5983 C   0  0  0  0  0  3  0  0  0  0  0  0
   16.9050   -2.1402   -5.5919 C   0  0  2  0  0  0  0  0  0  0  0  0
   16.4730   -0.7362   -5.3521 C   0  0  0  0  0  0  0  0  0  0  0  0
  1  2  1  0
  2  3  1  0
  2  4  1  0
  4  5  1  0
  5  6  1  0
  6  7  1  0
  7  8  1  1
  7  9  1  0
  9 10  1  0
 11 10  1  6
 11 12  1  0
 12 13  1  6
 12 14  1  0
 14 15  1  0
 15 16  1  0
 16 17  1  1
 16 18  1  0
 18 19  1  0
 19 20  1  0
 20 21  1  1
 20 22  1  0
 22 23  1  0
 23 24  1  0
 24 25  1  1
 24 11  1  0
M  RAD  3   9   2  14   2  23   2
M  END
>  <docking_score>  (1) 
-4.7270000000000003

$$$$

     RDKit          3D

 25 25  0  0  0  0  0  0  0  0999 V2000
    6.1080   10.8721   12.8831 C   0  0  0  0  0  0  0  0  0  0  0  0
    5.3192   11.1455   11.6058 C   0  0  0  0  0  0  0  0  0  0  0  0
    3.9868   11.7920   11.9689 C   0  0  0  0  0  0  0  0  0  0  0  0
    5.0869    9.8364   10.8469 C   0  0  0  0  0  0  0  0  0  0  0  0
    3.8844   10.0096    9.9362 C   0  0  0  0  0  0  0  0  0  0  0  0
    4.3410   10.0198    8.5067 C   0  0  0  0  0  0  0  0  0  0  0  0
    3.8638    8.8065    7.7375 C   0  0  1  0  0  0  0  0  0  0  0  0
    2.3675    8.8725    7.6372 C   0  0  0  0  0  0  0  0  0  0  0  0
    4.4170    8.7881    6.3283 C   0  0  0  0  0  3  0  0  0  0  0  0
    3.7211    9.8668    5.5525 C   0  0  0  0  0  0  0  0  0  0  0  0
    4.6456   10.8195    4.8745 C   0  0  2  0  0  0  0  0  0  0  0  0
    3.9985   11.9931    4.2426 C   0  0  2  0  0  0  0  0  0  0  0  0
    3.8154   11.9021    2.7671 C   0  0  0  0  0  0  0  0  0  0  0  0
    4.5418   13.3055    4.6976 C   0  0  0  0  0  3  0  0  0  0  0  0
    5.3638   14.0150    3.6734 C   0  0  0  0  0  0  0  0  0  0  0  0
    6.4209   14.8319    4.4207 C   0  0  2  0  0  0  0  0  0  0  0  0
    6.7956   16.0190    3.5845 C   0  0  0  0  0  0  0  0  0  0  0  0
    7.6183   13.9443    4.6875 C   0  0  0  0  0  0  0  0  0  0  0  0
    8.1553   13.4962    3.3495 C   0  0  0  0  0  0  0  0  0  0  0  0
    7.1130   12.7127    2.5907 C   0  0  1  0  0  0  0  0  0  0  0  0
    6.9664   13.1121    1.2843 O   0  0  0  0  0  0  0  0  0  0  0  0
    7.4039   11.2368    2.7428 C   0  0  0  0  0  0  0  0  0  0  0  0
    7.0352   10.7502    4.1092 C   0  0  0  0  0  3  0  0  0  0  0  0
    5.6726   10.1288    4.0534 C   0  0  2  0  0  0  0  0  0  0  0  0
    5.2319    9.7279    2.6895 C   0  0  0  0  0  0  0  0  0  0  0  0
  1  2  1  0
  2  3  1  0
  2  4  1  0
  4  5  1  0
  5  6  1  0
  6  7  1  0
  7  8  1  6
  7  9  1  0
  9 10  1  0
 11 10  1  6
 11 12  1  0
 12 13  1  6
 12 14  1  0
 14 15  1  0
 15 16  1  0
 16 17  1  6
 16 18  1  0
 18 19  1  0
 19 20  1  0
 20 21  1  6
 20 22  1  0
 22 23  1  0
 23 24  1  0
 24 25  1  6
 24 11  1  0
M  RAD  3   9   2  14   2  23   2
M  END
>  <docking_score>  (2) 
-3.7120000000000002

$$$$

     RDKit          3D

 25 25  0  0  0  0  0  0  0  0999 V2000
   14.6402    0.6043   -5.4643 C   0  0  0  0  0  0  0  0  0  0  0  0
   14.1054   -0.7385   -4.9750 C   0  0  0  0  0  0  0  0  0  0  0  0
   12.6052   -0.6202   -4.7286 C   0  0  0  0  0  0  0  0  0  0  0  0
   14.8260   -1.1485   -3.6880 C   0  0  0  0  0  0  0  0  0  0  0  0
   15.5554   -2.4570   -3.9353 C   0  0  0  0  0  0  0  0  0  0  0  0
   15.8068   -2.6155   -5.4063 C   0  0  0  0  0  0  0  0  0  0  0  0
   17.2763   -2.5179   -5.7565 C   0  0  1  0  0  0  0  0  0  0  0  0
   17.3927   -1.9487   -7.1406 C   0  0  0  0  0  0  0  0  0  0  0  0
   18.0119   -1.5878   -4.8153 C   0  0  0  0  0  3  0  0  0  0  0  0
   18.8544   -2.4332   -3.9070 C   0  0  0  0  0  0  0  0  0  0  0  0
   19.0348   -3.8360   -4.3777 C   0  0  2  0  0  0  0  0  0  0  0  0
   18.4085   -4.8771   -3.5295 C   0  0  2  0  0  0  0  0  0  0  0  0
   19.3370   -5.5959   -2.6130 C   0  0  0  0  0  0  0  0  0  0  0  0
   17.4759   -5.7800   -4.2642 C   0  0  0  0  0  3  0  0  0  0  0  0
   17.9957   -7.1651   -4.4628 C   0  0  0  0  0  0  0  0  0  0  0  0
   17.4081   -7.6907   -5.7750 C   0  0  2  0  0  0  0  0  0  0  0  0
   17.3147   -9.1854   -5.6991 C   0  0  0  0  0  0  0  0  0  0  0  0
   18.3016   -7.2504   -6.9155 C   0  0  0  0  0  0  0  0  0  0  0  0
   19.6663   -7.8510   -6.6777 C   0  0  0  0  0  0  0  0  0  0  0  0
   20.2453   -7.3619   -5.3732 C   0  0  1  0  0  0  0  0  0  0  0  0
   20.7588   -8.3654   -4.5878 O   0  0  0  0  0  0  0  0  0  0  0  0
   21.2330   -6.2541   -5.6614 C   0  0  0  0  0  0  0  0  0  0  0  0
   20.5309   -4.9858   -6.0331 C   0  0  0  0  0  3  0  0  0  0  0  0
   20.4256   -4.1137   -4.8190 C   0  0  2  0  0  0  0  0  0  0  0  0
   21.3823   -4.4523   -3.7303 C   0  0  0  0  0  0  0  0  0  0  0  0
  1  2  1  0
  2  3  1  0
  2  4  1  0
  4  5  1  0
  5  6  1  0
  6  7  1  0
  7  8  1  6
  7  9  1  0
  9 10  1  0
 11 10  1  1
 11 12  1  0
 12 13  1  6
 12 14  1  0
 14 15  1  0
 15 16  1  0
 16 17  1  1
 16 18  1  0
 18 19  1  0
 19 20  1  0
 20 21  1  6
 20 22  1  0
 22 23  1  0
 23 24  1  0
 24 25  1  1
 24 11  1  0
M  RAD  3   9   2  14   2  23   2
M  END
>  <docking_score>  (3) 
-3.125

$$$$
