
     RDKit          3D

 28 32  0  0  0  0  0  0  0  0999 V2000
   16.8843  -10.9517   -6.5129 C   0  0  0  0  0  0  0  0  0  0  0  0
   16.7453   -9.7134   -5.8447 O   0  0  0  0  0  0  0  0  0  0  0  0
   17.7194   -9.1667   -5.0643 C   0  0  0  0  0  0  0  0  0  0  0  0
   17.9470   -7.9118   -4.8859 C   0  0  0  0  0  0  0  0  0  0  0  0
   17.0215   -6.8940   -5.6329 C   0  0  0  0  0  0  0  0  0  0  0  0
   17.7040   -5.8918   -6.2217 C   0  0  0  0  0  0  0  0  0  0  0  0
   19.0555   -5.5969   -6.3205 C   0  0  0  0  0  0  0  0  0  0  0  0
   20.1242   -6.2740   -6.2386 C   0  0  0  0  0  0  0  0  0  0  0  0
   20.5342   -7.5714   -6.0227 C   0  0  0  0  0  0  0  0  0  0  0  0
   20.5529   -8.5643   -6.7069 O   0  0  0  0  0  0  0  0  0  0  0  0
   21.1193   -7.8628   -4.5605 C   0  0  0  0  0  0  0  0  0  0  0  0
   20.1080   -6.9609   -3.7718 C   0  0  0  0  0  0  0  0  0  0  0  0
   20.7390   -5.9204   -3.0861 C   0  0  0  0  0  0  0  0  0  0  0  0
   19.9807   -4.8261   -2.7097 C   0  0  0  0  0  0  0  0  0  0  0  0
   18.6553   -4.9105   -3.0633 C   0  0  0  0  0  0  0  0  0  0  0  0
   18.0915   -5.8822   -3.6791 C   0  0  0  0  0  0  0  0  0  0  0  0
   18.8168   -7.0575   -4.1125 C   0  0  0  0  0  0  0  0  0  0  0  0
   16.7012   -4.7947   -6.6402 C   0  0  0  0  0  0  0  0  0  0  0  0
   16.6288   -3.7606   -5.5168 C   0  0  0  0  0  0  0  0  0  0  0  0
   17.1162   -2.5670   -5.8420 C   0  0  0  0  0  0  0  0  0  0  0  0
   16.0908   -3.9900   -4.1919 C   0  0  0  0  0  0  0  0  0  0  0  0
   16.0873   -2.9301   -3.1554 C   0  0  0  0  0  0  0  0  0  0  0  0
   17.4518   -2.6614   -2.5496 C   0  0  0  0  0  0  0  0  0  0  0  0
   18.0951   -1.6064   -2.0188 C   0  0  0  0  0  0  0  0  0  0  0  0
   19.4883   -2.1073   -1.6116 C   0  0  2  0  0  0  0  0  0  0  0  0
   20.5228   -1.1650   -2.1903 C   0  0  0  0  0  0  0  0  0  0  0  0
   19.6069   -3.4768   -2.1989 C   0  0  0  0  0  0  0  0  0  0  0  0
   18.3852   -3.6923   -2.6111 C   0  0  0  0  0  0  0  0  0  0  0  0
  1  2  1  0
  2  3  1  0
  3  4  2  3
  4  5  1  0
  5  6  2  0
  6  7  1  0
  7  8  2  0
  8  9  1  0
  9 10  2  0
  9 11  1  0
 11 12  1  0
 12 13  2  0
 13 14  1  0
 14 15  2  0
 15 16  1  0
 16 17  2  0
  6 18  1  0
 18 19  1  0
 19 20  2  0
 19 21  1  0
 21 22  1  0
 22 23  1  0
 23 24  2  0
 24 25  1  0
 25 26  1  6
 25 27  1  0
 27 28  2  0
 17  4  1  0
 17 12  1  0
 27 14  1  0
 28 15  1  0
 28 23  1  0
M  END
>  <docking_score>  (1) 
-6.3979999999999997

$$$$

     RDKit          3D

 28 32  0  0  0  0  0  0  0  0999 V2000
   13.6696    0.1589   -4.3365 C   0  0  0  0  0  0  0  0  0  0  0  0
   13.9017   -0.8210   -5.3289 O   0  0  0  0  0  0  0  0  0  0  0  0
   14.0919   -2.1416   -5.0518 C   0  0  0  0  0  0  0  0  0  0  0  0
   15.2068   -2.7841   -5.1007 C   0  0  0  0  0  0  0  0  0  0  0  0
   16.4861   -1.9850   -5.5192 C   0  0  0  0  0  0  0  0  0  0  0  0
   17.2444   -2.6361   -6.4237 C   0  0  0  0  0  0  0  0  0  0  0  0
   17.1063   -3.8531   -7.0742 C   0  0  0  0  0  0  0  0  0  0  0  0
   16.1276   -4.6090   -7.3533 C   0  0  0  0  0  0  0  0  0  0  0  0
   14.7606   -4.6646   -7.1904 C   0  0  0  0  0  0  0  0  0  0  0  0
   13.8343   -4.1088   -7.7263 O   0  0  0  0  0  0  0  0  0  0  0  0
   14.2540   -5.6743   -6.0551 C   0  0  0  0  0  0  0  0  0  0  0  0
   15.3999   -5.3865   -5.0245 C   0  0  0  0  0  0  0  0  0  0  0  0
   16.1690   -6.5191   -4.7473 C   0  0  0  0  0  0  0  0  0  0  0  0
   17.4323   -6.3409   -4.2118 C   0  0  0  0  0  0  0  0  0  0  0  0
   17.7767   -5.0265   -4.0059 C   0  0  0  0  0  0  0  0  0  0  0  0
   17.0497   -4.0008   -4.2523 C   0  0  0  0  0  0  0  0  0  0  0  0
   15.7217   -4.1032   -4.8190 C   0  0  0  0  0  0  0  0  0  0  0  0
   18.6124   -1.9264   -6.5192 C   0  0  0  0  0  0  0  0  0  0  0  0
   19.5803   -2.6253   -5.5647 C   0  0  0  0  0  0  0  0  0  0  0  0
   20.5724   -3.2710   -6.1702 C   0  0  0  0  0  0  0  0  0  0  0  0
   19.4870   -2.6265   -4.1195 C   0  0  0  0  0  0  0  0  0  0  0  0
   20.4608   -3.3576   -3.2739 C   0  0  0  0  0  0  0  0  0  0  0  0
   20.2710   -4.8626   -3.2827 C   0  0  0  0  0  0  0  0  0  0  0  0
   21.0550   -5.9476   -3.1533 C   0  0  0  0  0  0  0  0  0  0  0  0
   20.1318   -7.1680   -3.2799 C   0  0  2  0  0  0  0  0  0  0  0  0
   20.7230   -8.1098   -4.3076 C   0  0  0  0  0  0  0  0  0  0  0  0
   18.8134   -6.6257   -3.7297 C   0  0  0  0  0  0  0  0  0  0  0  0
   19.0030   -5.3382   -3.6052 C   0  0  0  0  0  0  0  0  0  0  0  0
  1  2  1  0
  2  3  1  0
  3  4  2  3
  4  5  1  0
  5  6  2  0
  6  7  1  0
  7  8  2  0
  8  9  1  0
  9 10  2  0
  9 11  1  0
 11 12  1  0
 12 13  2  0
 13 14  1  0
 14 15  2  0
 15 16  1  0
 16 17  2  0
  6 18  1  0
 18 19  1  0
 19 20  2  0
 19 21  1  0
 21 22  1  0
 22 23  1  0
 23 24  2  0
 24 25  1  0
 25 26  1  6
 25 27  1  0
 27 28  2  0
 17  4  1  0
 17 12  1  0
 27 14  1  0
 28 15  1  0
 28 23  1  0
M  END
>  <docking_score>  (2) 
-6.29

$$$$

     RDKit          3D

 28 32  0  0  0  0  0  0  0  0999 V2000
   13.1503    0.0386   -4.2188 C   0  0  0  0  0  0  0  0  0  0  0  0
   14.3854   -0.5978   -4.4809 O   0  0  0  0  0  0  0  0  0  0  0  0
   14.4934   -1.9008   -4.8645 C   0  0  0  0  0  0  0  0  0  0  0  0
   15.5794   -2.5863   -4.9595 C   0  0  0  0  0  0  0  0  0  0  0  0
   16.9235   -1.8679   -4.6025 C   0  0  0  0  0  0  0  0  0  0  0  0
   17.9025   -2.1007   -5.4994 C   0  0  0  0  0  0  0  0  0  0  0  0
   17.9505   -2.8234   -6.6820 C   0  0  0  0  0  0  0  0  0  0  0  0
   17.0875   -3.2102   -7.5263 C   0  0  0  0  0  0  0  0  0  0  0  0
   15.7287   -3.1498   -7.7456 C   0  0  0  0  0  0  0  0  0  0  0  0
   14.9852   -2.2842   -8.1357 O   0  0  0  0  0  0  0  0  0  0  0  0
   14.9299   -4.5008   -7.4262 C   0  0  0  0  0  0  0  0  0  0  0  0
   15.7471   -4.9035   -6.1502 C   0  0  0  0  0  0  0  0  0  0  0  0
   16.4114   -6.1229   -6.3013 C   0  0  0  0  0  0  0  0  0  0  0  0
   17.4780   -6.3987   -5.4643 C   0  0  0  0  0  0  0  0  0  0  0  0
   17.7507   -5.4062   -4.5536 C   0  0  0  0  0  0  0  0  0  0  0  0
   17.1186   -4.2999   -4.4202 C   0  0  0  0  0  0  0  0  0  0  0  0
   15.9983   -3.9347   -5.2609 C   0  0  0  0  0  0  0  0  0  0  0  0
   19.2430   -1.6271   -4.8969 C   0  0  0  0  0  0  0  0  0  0  0  0
   19.9112   -2.8236   -4.2198 C   0  0  0  0  0  0  0  0  0  0  0  0
   21.0325   -3.2275   -4.8092 C   0  0  0  0  0  0  0  0  0  0  0  0
   19.4232   -3.5065   -3.0396 C   0  0  0  0  0  0  0  0  0  0  0  0
   20.1271   -4.6793   -2.4680 C   0  0  0  0  0  0  0  0  0  0  0  0
   19.9489   -5.9527   -3.2728 C   0  0  0  0  0  0  0  0  0  0  0  0
   20.6682   -7.0619   -3.5196 C   0  0  0  0  0  0  0  0  0  0  0  0
   19.8171   -7.9320   -4.4557 C   0  0  2  0  0  0  0  0  0  0  0  0
   20.6698   -8.3347   -5.6404 C   0  0  0  0  0  0  0  0  0  0  0  0
   18.6731   -7.0659   -4.8747 C   0  0  0  0  0  0  0  0  0  0  0  0
   18.8195   -6.0364   -4.0823 C   0  0  0  0  0  0  0  0  0  0  0  0
  1  2  1  0
  2  3  1  0
  3  4  2  3
  4  5  1  0
  5  6  2  0
  6  7  1  0
  7  8  2  0
  8  9  1  0
  9 10  2  0
  9 11  1  0
 11 12  1  0
 12 13  2  0
 13 14  1  0
 14 15  2  0
 15 16  1  0
 16 17  2  0
  6 18  1  0
 18 19  1  0
 19 20  2  0
 19 21  1  0
 21 22  1  0
 22 23  1  0
 23 24  2  0
 24 25  1  0
 25 26  1  6
 25 27  1  0
 27 28  2  0
 17  4  1  0
 17 12  1  0
 27 14  1  0
 28 15  1  0
 28 23  1  0
M  END
>  <docking_score>  (3) 
-5.9359999999999999

$$$$
