
     RDKit          3D

 26 27  0  0  0  0  0  0  0  0999 V2000
   21.0732   -0.3804   -1.0066 C   0  0  0  0  0  0  0  0  0  0  0  0
   20.3992   -1.5278   -1.7352 C   0  0  0  0  0  0  0  0  0  0  0  0
   20.3459   -2.7141   -0.7903 C   0  0  0  0  0  0  0  0  0  0  0  0
   21.2451   -1.8290   -2.9535 C   0  0  0  0  0  0  0  0  0  0  0  0
   19.0079   -1.1259   -2.0724 C   0  0  0  0  0  0  0  0  0  0  0  0
   18.2670   -2.0610   -2.9451 C   0  0  1  0  0  0  0  0  0  0  0  0
   17.0137   -2.5213   -2.2445 C   0  0  1  0  0  0  0  0  0  0  0  0
   16.1027   -1.3705   -1.9121 C   0  0  0  0  0  0  0  0  0  0  0  0
   16.3483   -3.6227   -2.8509 N   0  0  0  0  0  0  0  0  0  0  0  0
   16.7763   -4.9304   -2.4240 C   0  0  0  0  0  0  0  0  0  0  0  0
   16.9166   -5.8294   -3.6709 C   0  0  0  0  0  0  0  0  0  0  0  0
   17.4190   -4.9298   -4.7272 C   0  0  1  0  0  0  0  0  0  0  0  0
   16.4252   -3.8701   -5.1338 C   0  0  0  0  0  0  0  0  0  0  0  0
   15.3649   -4.5285   -5.7546 O   0  0  0  0  0  0  0  0  0  0  0  0
   14.2006   -4.0440   -5.3807 O   0  0  0  0  0  0  0  0  0  0  0  0
   13.2483   -4.8156   -5.8625 O   0  0  0  0  0  0  0  0  0  0  0  0
   13.7612   -5.8126   -6.5849 O   0  0  0  0  0  0  0  0  0  0  0  0
   18.7324   -4.3918   -4.2915 C   0  0  0  0  0  0  0  0  0  0  0  0
   19.3222   -4.5339   -3.2600 O   0  0  0  0  0  0  0  0  0  0  0  0
   18.1298   -1.7003   -4.3332 C   0  0  0  0  0  0  0  0  0  0  0  0
   18.4956   -2.3059   -5.4305 C   0  0  0  0  0  0  0  0  0  0  0  0
   19.1879   -3.6033   -5.4582 C   0  0  2  0  0  0  0  0  0  0  0  0
   18.6911   -4.4709   -6.6361 C   0  0  0  0  0  0  0  0  0  0  0  0
   17.8622   -5.5621   -5.9960 C   0  0  0  0  0  0  0  0  0  0  0  0
   17.6221   -6.7310   -6.4601 C   0  0  0  0  0  0  0  0  0  0  0  0
   17.2649   -7.9119   -6.8388 C   0  0  0  0  0  0  0  0  0  0  0  0
  1  2  1  0
  2  3  1  0
  2  4  1  0
  2  5  1  0
  6  5  1  1
  6  7  1  0
  7  8  1  6
  7  9  1  0
  9 10  1  0
 10 11  1  0
 11 12  1  0
 12 13  1  6
 13 14  1  0
 14 15  1  0
 15 16  1  0
 16 17  1  0
 12 18  1  0
 18 19  2  0
  6 20  1  0
 20 21  2  3
 21 22  1  0
 22 23  1  6
 23 24  1  0
 24 25  2  0
 25 26  2  0
 24 12  1  0
 22 18  1  0
M  END
>  <docking_score>  (1) 
-5.3769999999999998

$$$$

     RDKit          3D

 26 27  0  0  0  0  0  0  0  0999 V2000
   17.8317   -9.3664   -6.9118 C   0  0  0  0  0  0  0  0  0  0  0  0
   18.0787   -8.0193   -6.2593 C   0  0  0  0  0  0  0  0  0  0  0  0
   19.1895   -7.3255   -7.0259 C   0  0  0  0  0  0  0  0  0  0  0  0
   18.4838   -8.2949   -4.8273 C   0  0  0  0  0  0  0  0  0  0  0  0
   16.8416   -7.2019   -6.3714 C   0  0  0  0  0  0  0  0  0  0  0  0
   16.8823   -5.8863   -5.6988 C   0  0  1  0  0  0  0  0  0  0  0  0
   16.8373   -4.7887   -6.7315 C   0  0  1  0  0  0  0  0  0  0  0  0
   15.5832   -4.8510   -7.5611 C   0  0  0  0  0  0  0  0  0  0  0  0
   17.1401   -3.4859   -6.2471 N   0  0  0  0  0  0  0  0  0  0  0  0
   18.5318   -3.1142   -6.2659 C   0  0  0  0  0  0  0  0  0  0  0  0
   18.8703   -2.4213   -4.9288 C   0  0  0  0  0  0  0  0  0  0  0  0
   18.0590   -3.1325   -3.9220 C   0  0  1  0  0  0  0  0  0  0  0  0
   16.5748   -2.9231   -4.0925 C   0  0  0  0  0  0  0  0  0  0  0  0
   16.3360   -1.5617   -3.9115 O   0  0  0  0  0  0  0  0  0  0  0  0
   15.2251   -1.1762   -4.5008 O   0  0  0  0  0  0  0  0  0  0  0  0
   14.3780   -0.7686   -3.5785 O   0  0  0  0  0  0  0  0  0  0  0  0
   13.3308   -0.1538   -4.1302 O   0  0  0  0  0  0  0  0  0  0  0  0
   18.4720   -4.5585   -3.9177 C   0  0  0  0  0  0  0  0  0  0  0  0
   19.2492   -5.1403   -4.6173 O   0  0  0  0  0  0  0  0  0  0  0  0
   16.0443   -5.7111   -4.5400 C   0  0  0  0  0  0  0  0  0  0  0  0
   16.3229   -5.3999   -3.3029 C   0  0  0  0  0  0  0  0  0  0  0  0
   17.6846   -5.1438   -2.8096 C   0  0  2  0  0  0  0  0  0  0  0  0
   17.6924   -3.9937   -1.7780 C   0  0  0  0  0  0  0  0  0  0  0  0
   18.3385   -2.8293   -2.4951 C   0  0  0  0  0  0  0  0  0  0  0  0
   18.9642   -1.8426   -1.9713 C   0  0  0  0  0  0  0  0  0  0  0  0
   19.5684   -0.7762   -1.5672 C   0  0  0  0  0  0  0  0  0  0  0  0
  1  2  1  0
  2  3  1  0
  2  4  1  0
  2  5  1  0
  6  5  1  6
  6  7  1  0
  7  8  1  1
  7  9  1  0
  9 10  1  0
 10 11  1  0
 11 12  1  0
 12 13  1  6
 13 14  1  0
 14 15  1  0
 15 16  1  0
 16 17  1  0
 12 18  1  0
 18 19  2  0
  6 20  1  0
 20 21  2  3
 21 22  1  0
 22 23  1  1
 23 24  1  0
 24 25  2  0
 25 26  2  0
 24 12  1  0
 22 18  1  0
M  END
>  <docking_score>  (2) 
-5.1550000000000002

$$$$

     RDKit          3D

 26 27  0  0  0  0  0  0  0  0999 V2000
   18.3431   -8.5692   -5.2474 C   0  0  0  0  0  0  0  0  0  0  0  0
   18.2508   -8.2487   -6.7274 C   0  0  0  0  0  0  0  0  0  0  0  0
   18.1656   -9.5609   -7.4851 C   0  0  0  0  0  0  0  0  0  0  0  0
   19.5053   -7.4827   -7.0878 C   0  0  0  0  0  0  0  0  0  0  0  0
   17.0030   -7.4777   -6.9707 C   0  0  0  0  0  0  0  0  0  0  0  0
   16.9065   -6.1808   -6.2680 C   0  0  1  0  0  0  0  0  0  0  0  0
   16.8987   -5.0590   -7.2754 C   0  0  1  0  0  0  0  0  0  0  0  0
   15.7345   -5.1650   -8.2231 C   0  0  0  0  0  0  0  0  0  0  0  0
   17.0813   -3.7558   -6.7351 N   0  0  0  0  0  0  0  0  0  0  0  0
   18.4457   -3.3103   -6.6114 C   0  0  0  0  0  0  0  0  0  0  0  0
   18.6167   -2.6375   -5.2327 C   0  0  0  0  0  0  0  0  0  0  0  0
   17.7543   -3.4184   -4.3250 C   0  0  1  0  0  0  0  0  0  0  0  0
   16.2836   -3.2836   -4.6328 C   0  0  0  0  0  0  0  0  0  0  0  0
   15.9292   -1.9675   -4.3403 O   0  0  0  0  0  0  0  0  0  0  0  0
   15.1803   -1.4401   -5.2842 O   0  0  0  0  0  0  0  0  0  0  0  0
   13.9994   -1.1550   -4.7757 O   0  0  0  0  0  0  0  0  0  0  0  0
   14.1201   -0.4056   -3.6790 O   0  0  0  0  0  0  0  0  0  0  0  0
   18.2436   -4.8200   -4.3128 C   0  0  0  0  0  0  0  0  0  0  0  0
   19.1149   -5.3401   -4.9472 O   0  0  0  0  0  0  0  0  0  0  0  0
   15.9538   -6.0824   -5.1916 C   0  0  0  0  0  0  0  0  0  0  0  0
   16.0959   -5.7911   -3.9269 C   0  0  0  0  0  0  0  0  0  0  0  0
   17.3883   -5.4767   -3.2990 C   0  0  2  0  0  0  0  0  0  0  0  0
   17.2342   -4.3567   -2.2460 C   0  0  0  0  0  0  0  0  0  0  0  0
   17.8798   -3.1402   -2.8713 C   0  0  0  0  0  0  0  0  0  0  0  0
   18.3970   -2.1365   -2.2677 C   0  0  0  0  0  0  0  0  0  0  0  0
   18.9000   -1.0510   -1.7835 C   0  0  0  0  0  0  0  0  0  0  0  0
  1  2  1  0
  2  3  1  0
  2  4  1  0
  2  5  1  0
  6  5  1  6
  6  7  1  0
  7  8  1  1
  7  9  1  0
  9 10  1  0
 10 11  1  0
 11 12  1  0
 12 13  1  6
 13 14  1  0
 14 15  1  0
 15 16  1  0
 16 17  1  0
 12 18  1  0
 18 19  2  0
  6 20  1  0
 20 21  2  3
 21 22  1  0
 22 23  1  1
 23 24  1  0
 24 25  2  0
 25 26  2  0
 24 12  1  0
 22 18  1  0
M  END
>  <docking_score>  (3) 
-4.7000000000000002

$$$$
