
     RDKit          3D

 23 24  0  0  0  0  0  0  0  0999 V2000
   16.8637   -1.5779   -1.9418 C   0  0  0  0  0  0  0  0  0  0  0  0
   18.1568   -1.4862   -2.7536 C   0  0  1  0  0  0  0  0  0  0  0  0
   19.2584   -1.1844   -1.8064 C   0  0  0  0  0  0  0  0  0  0  0  0
   20.2693   -2.2562   -1.6253 C   0  0  2  0  0  0  0  0  0  0  0  0
   21.3179   -2.1400   -2.5438 O   0  0  0  0  0  0  0  0  0  0  0  0
   19.7124   -3.6391   -1.5417 C   0  0  2  0  0  0  0  0  0  0  0  0
   20.6879   -4.5951   -1.7627 O   0  0  0  0  0  0  0  0  0  0  0  0
   18.4895   -3.8627   -2.3616 C   0  0  1  0  0  0  0  0  0  0  0  0
   17.3865   -3.7730   -1.5081 O   0  0  0  0  0  0  0  0  0  0  0  0
   18.3010   -2.8253   -3.4611 C   0  0  1  0  0  0  0  0  0  0  0  0
   16.9587   -3.1160   -3.9979 N   0  0  0  0  0  0  0  0  0  0  0  0
   16.9435   -4.4003   -4.6843 C   0  0  1  0  0  0  0  0  0  0  0  0
   15.6938   -5.1840   -4.2409 C   0  0  0  0  0  0  0  0  0  0  0  0
   15.5310   -6.4026   -5.0954 C   0  0  0  0  0  3  0  0  0  0  0  0
   14.5512   -7.2150   -4.5452 O   0  0  0  0  0  0  0  0  0  0  0  0
   15.1572   -6.0806   -6.5198 C   0  0  2  0  0  0  0  0  0  0  0  0
   16.2654   -6.0389   -7.3462 O   0  0  0  0  0  0  0  0  0  0  0  0
   14.3162   -4.8382   -6.6405 C   0  0  1  0  0  0  0  0  0  0  0  0
   13.2188   -4.9676   -5.7939 O   0  0  0  0  0  0  0  0  0  0  0  0
   15.2006   -3.6660   -6.2380 C   0  0  2  0  0  0  0  0  0  0  0  0
   14.9774   -2.5870   -7.1147 O   0  0  0  0  0  0  0  0  0  0  0  0
   16.6452   -4.0496   -6.1528 C   0  0  1  0  0  0  0  0  0  0  0  0
   17.4306   -2.9732   -6.5369 O   0  0  0  0  0  0  0  0  0  0  0  0
  2  1  1  1
  2  3  1  0
  3  4  1  0
  4  5  1  6
  4  6  1  0
  6  7  1  6
  6  8  1  0
  8  9  1  1
  8 10  1  0
 10 11  1  1
 12 11  1  1
 12 13  1  0
 13 14  1  0
 14 15  1  0
 14 16  1  0
 16 17  1  6
 16 18  1  0
 18 19  1  1
 18 20  1  0
 20 21  1  6
 20 22  1  0
 22 23  1  1
 10  2  1  0
 22 12  1  0
M  RAD  1  14   2
M  END
>  <docking_score>  (1) 
-5.5670000000000002

$$$$

     RDKit          3D

 23 24  0  0  0  0  0  0  0  0999 V2000
   20.1836   -4.8495   -2.4036 C   0  0  0  0  0  0  0  0  0  0  0  0
   19.4786   -3.6597   -1.7501 C   0  0  1  0  0  0  0  0  0  0  0  0
   20.5185   -2.8308   -1.0920 C   0  0  0  0  0  0  0  0  0  0  0  0
   20.7408   -1.4849   -1.6773 C   0  0  2  0  0  0  0  0  0  0  0  0
   19.9113   -0.5222   -1.0927 O   0  0  0  0  0  0  0  0  0  0  0  0
   20.7331   -1.4385   -3.1697 C   0  0  2  0  0  0  0  0  0  0  0  0
   20.5559   -0.1486   -3.6381 O   0  0  0  0  0  0  0  0  0  0  0  0
   19.8132   -2.4171   -3.8130 C   0  0  1  0  0  0  0  0  0  0  0  0
   20.5808   -3.5090   -4.2272 O   0  0  0  0  0  0  0  0  0  0  0  0
   18.7387   -2.9458   -2.8714 C   0  0  1  0  0  0  0  0  0  0  0  0
   18.0894   -4.0225   -3.6418 N   0  0  0  0  0  0  0  0  0  0  0  0
   16.6439   -3.8469   -3.6581 C   0  0  1  0  0  0  0  0  0  0  0  0
   16.3289   -2.3426   -3.7604 C   0  0  0  0  0  0  0  0  0  0  0  0
   14.8653   -2.1477   -4.0084 C   0  0  0  0  0  3  0  0  0  0  0  0
   14.5562   -0.8034   -3.8668 O   0  0  0  0  0  0  0  0  0  0  0  0
   14.4305   -2.6088   -5.3760 C   0  0  2  0  0  0  0  0  0  0  0  0
   13.9298   -3.8978   -5.3498 O   0  0  0  0  0  0  0  0  0  0  0  0
   15.5004   -2.4401   -6.4212 C   0  0  1  0  0  0  0  0  0  0  0  0
   15.9361   -1.1183   -6.3931 O   0  0  0  0  0  0  0  0  0  0  0  0
   16.6206   -3.4082   -6.0659 C   0  0  2  0  0  0  0  0  0  0  0  0
   17.0991   -4.0229   -7.2389 O   0  0  0  0  0  0  0  0  0  0  0  0
   16.2032   -4.3999   -5.0250 C   0  0  1  0  0  0  0  0  0  0  0  0
   16.8411   -5.6088   -5.2590 O   0  0  0  0  0  0  0  0  0  0  0  0
  2  1  1  6
  2  3  1  0
  3  4  1  0
  4  5  1  1
  4  6  1  0
  6  7  1  1
  6  8  1  0
  8  9  1  1
  8 10  1  0
 10 11  1  6
 12 11  1  6
 12 13  1  0
 13 14  1  0
 14 15  1  0
 14 16  1  0
 16 17  1  1
 16 18  1  0
 18 19  1  1
 18 20  1  0
 20 21  1  6
 20 22  1  0
 22 23  1  6
 10  2  1  0
 22 12  1  0
M  RAD  1  14   2
M  END
>  <docking_score>  (2) 
-5.476

$$$$

     RDKit          3D

 23 24  0  0  0  0  0  0  0  0999 V2000
   19.9761   -4.8041   -2.4647 C   0  0  0  0  0  0  0  0  0  0  0  0
   19.2651   -3.6114   -1.8232 C   0  0  1  0  0  0  0  0  0  0  0  0
   20.2771   -2.8525   -1.0475 C   0  0  0  0  0  0  0  0  0  0  0  0
   20.6000   -1.4959   -1.5562 C   0  0  2  0  0  0  0  0  0  0  0  0
   19.7620   -0.5221   -1.0030 O   0  0  0  0  0  0  0  0  0  0  0  0
   20.7201   -1.3926   -3.0410 C   0  0  2  0  0  0  0  0  0  0  0  0
   20.6332   -0.0796   -3.4687 O   0  0  0  0  0  0  0  0  0  0  0  0
   19.8206   -2.3065   -3.7981 C   0  0  1  0  0  0  0  0  0  0  0  0
   20.5775   -3.4132   -4.1922 O   0  0  0  0  0  0  0  0  0  0  0  0
   18.6508   -2.8249   -2.9714 C   0  0  1  0  0  0  0  0  0  0  0  0
   18.0276   -3.8434   -3.8368 N   0  0  0  0  0  0  0  0  0  0  0  0
   16.7202   -3.3989   -4.2992 C   0  0  1  0  0  0  0  0  0  0  0  0
   16.8351   -2.9742   -5.7754 C   0  0  0  0  0  0  0  0  0  0  0  0
   15.4698   -2.7311   -6.3399 C   0  0  0  0  0  3  0  0  0  0  0  0
   15.5935   -2.1305   -7.5835 O   0  0  0  0  0  0  0  0  0  0  0  0
   14.6561   -3.9918   -6.4835 C   0  0  2  0  0  0  0  0  0  0  0  0
   13.8234   -4.1937   -5.3979 O   0  0  0  0  0  0  0  0  0  0  0  0
   15.4971   -5.2037   -6.7827 C   0  0  1  0  0  0  0  0  0  0  0  0
   16.2893   -4.9243   -7.8927 O   0  0  0  0  0  0  0  0  0  0  0  0
   16.3408   -5.4718   -5.5440 C   0  0  2  0  0  0  0  0  0  0  0  0
   16.3779   -6.8567   -5.2923 O   0  0  0  0  0  0  0  0  0  0  0  0
   15.8748   -4.6833   -4.3598 C   0  0  1  0  0  0  0  0  0  0  0  0
   16.0796   -5.4232   -3.2049 O   0  0  0  0  0  0  0  0  0  0  0  0
  2  1  1  6
  2  3  1  0
  3  4  1  0
  4  5  1  6
  4  6  1  0
  6  7  1  6
  6  8  1  0
  8  9  1  1
  8 10  1  0
 10 11  1  6
 12 11  1  6
 12 13  1  0
 13 14  1  0
 14 15  1  0
 14 16  1  0
 16 17  1  1
 16 18  1  0
 18 19  1  6
 18 20  1  0
 20 21  1  1
 20 22  1  0
 22 23  1  1
 10  2  1  0
 22 12  1  0
M  RAD  1  14   2
M  END
>  <docking_score>  (3) 
-5.3129999999999997

$$$$
