
     RDKit          3D

 25 25  0  0  0  0  0  0  0  0999 V2000
   20.1139   -5.2273   -2.6963 C   0  0  0  0  0  0  0  0  0  0  0  0
   19.7211   -6.0662   -3.8715 C   0  0  1  0  0  0  0  0  0  0  0  0
   18.2508   -6.4103   -3.7549 C   0  0  0  0  0  0  0  0  0  0  0  0
   17.7348   -7.1594   -4.9577 C   0  0  2  0  0  0  0  0  0  0  0  0
   18.1230   -8.4875   -4.9622 O   0  0  0  0  0  0  0  0  0  0  0  0
   18.0671   -6.4644   -6.2605 C   0  0  2  0  0  0  0  0  0  0  0  0
   17.6296   -7.2459   -7.3037 O   0  0  0  0  0  0  0  0  0  0  0  0
   19.5782   -6.2299   -6.3011 C   0  0  1  0  0  0  0  0  0  0  0  0
   19.9064   -5.7002   -7.5268 O   0  0  0  0  0  0  0  0  0  0  0  0
   19.8840   -5.2760   -5.1645 C   0  0  1  0  0  0  0  0  0  0  0  0
   18.8597   -4.2229   -5.1918 N   0  0  0  0  0  0  0  0  0  0  0  0
   19.4599   -2.9349   -5.4832 C   0  0  0  0  0  3  0  0  0  0  0  0
   18.5173   -2.1375   -6.3963 C   0  0  2  0  0  0  0  0  0  0  0  0
   18.1622   -0.8802   -5.6683 C   0  0  0  0  0  0  0  0  0  0  0  0
   17.4961   -2.9453   -6.7420 O   0  0  0  0  0  0  0  0  0  0  0  0
   16.2330   -2.4806   -6.6813 C   0  0  1  0  0  0  0  0  0  0  0  0
   15.6509   -2.1521   -7.8935 O   0  0  0  0  0  0  0  0  0  0  0  0
   15.3156   -3.5019   -6.0089 C   0  0  2  0  0  0  0  0  0  0  0  0
   14.3300   -3.9252   -6.9243 O   0  0  0  0  0  0  0  0  0  0  0  0
   14.6575   -2.7941   -4.8521 C   0  0  2  0  0  0  0  0  0  0  0  0
   13.9806   -1.6802   -5.3172 O   0  0  0  0  0  0  0  0  0  0  0  0
   15.6134   -2.4265   -3.7580 C   0  0  0  0  0  3  0  0  0  0  0  0
   16.2220   -3.5990   -3.0581 C   0  0  0  0  0  0  0  0  0  0  0  0
   16.9409   -3.1359   -1.8128 C   0  0  0  0  0  3  0  0  0  0  0  0
   18.1050   -2.4229   -2.1771 O   0  0  0  0  0  0  0  0  0  0  0  0
  2  1  1  1
  2  3  1  0
  3  4  1  0
  4  5  1  6
  4  6  1  0
  6  7  1  6
  6  8  1  0
  8  9  1  6
  8 10  1  0
 10 11  1  1
 11 12  1  0
 12 13  1  0
 13 14  1  1
 13 15  1  0
 15 16  1  0
 16 17  1  6
 16 18  1  0
 18 19  1  6
 18 20  1  0
 20 21  1  6
 20 22  1  0
 22 23  1  0
 23 24  1  0
 24 25  1  0
 10  2  1  0
M  RAD  3  12   2  22   2  24   2
M  END
>  <docking_score>  (1) 
-3.6480000000000001

$$$$

     RDKit          3D

 25 25  0  0  0  0  0  0  0  0999 V2000
   18.0405   -3.4852   -7.1173 C   0  0  0  0  0  0  0  0  0  0  0  0
   17.8899   -4.8825   -6.6038 C   0  0  1  0  0  0  0  0  0  0  0  0
   18.8446   -5.7844   -7.3582 C   0  0  0  0  0  0  0  0  0  0  0  0
   18.8474   -7.1962   -6.8282 C   0  0  2  0  0  0  0  0  0  0  0  0
   17.7341   -7.9147   -7.2268 O   0  0  0  0  0  0  0  0  0  0  0  0
   19.0558   -7.2533   -5.3302 C   0  0  2  0  0  0  0  0  0  0  0  0
   18.9704   -8.5629   -4.9206 O   0  0  0  0  0  0  0  0  0  0  0  0
   17.9994   -6.3655   -4.6702 C   0  0  1  0  0  0  0  0  0  0  0  0
   18.1078   -6.4963   -3.3057 O   0  0  0  0  0  0  0  0  0  0  0  0
   18.2902   -4.9532   -5.1349 C   0  0  1  0  0  0  0  0  0  0  0  0
   19.7434   -4.7551   -5.0445 N   0  0  0  0  0  0  0  0  0  0  0  0
   20.0887   -4.0651   -3.8162 C   0  0  0  0  0  3  0  0  0  0  0  0
   19.1176   -2.8936   -3.6091 C   0  0  2  0  0  0  0  0  0  0  0  0
   19.9234   -1.6366   -3.6937 C   0  0  0  0  0  0  0  0  0  0  0  0
   18.4508   -3.1085   -2.4585 O   0  0  0  0  0  0  0  0  0  0  0  0
   17.1037   -3.0985   -2.4607 C   0  0  1  0  0  0  0  0  0  0  0  0
   16.4939   -3.5557   -1.3051 O   0  0  0  0  0  0  0  0  0  0  0  0
   16.5764   -1.6862   -2.7136 C   0  0  2  0  0  0  0  0  0  0  0  0
   15.8324   -1.2533   -1.5965 O   0  0  0  0  0  0  0  0  0  0  0  0
   15.6730   -1.7725   -3.9172 C   0  0  2  0  0  0  0  0  0  0  0  0
   14.5214   -1.0416   -3.6834 O   0  0  0  0  0  0  0  0  0  0  0  0
   15.3470   -3.1797   -4.3166 C   0  0  0  0  0  3  0  0  0  0  0  0
   14.2549   -3.2899   -5.3316 C   0  0  0  0  0  0  0  0  0  0  0  0
   14.3427   -4.6233   -6.0362 C   0  0  0  0  0  3  0  0  0  0  0  0
   14.5963   -5.6415   -5.0900 O   0  0  0  0  0  0  0  0  0  0  0  0
  2  1  1  6
  2  3  1  0
  3  4  1  0
  4  5  1  1
  4  6  1  0
  6  7  1  1
  6  8  1  0
  8  9  1  1
  8 10  1  0
 10 11  1  6
 11 12  1  0
 12 13  1  0
 13 14  1  1
 13 15  1  0
 15 16  1  0
 16 17  1  1
 16 18  1  0
 18 19  1  1
 18 20  1  0
 20 21  1  1
 20 22  1  0
 22 23  1  0
 23 24  1  0
 24 25  1  0
 10  2  1  0
M  RAD  3  12   2  22   2  24   2
M  END
>  <docking_score>  (2) 
-3.456

$$$$

     RDKit          3D

 25 25  0  0  0  0  0  0  0  0999 V2000
   17.3348   -8.6984   -5.3679 C   0  0  0  0  0  0  0  0  0  0  0  0
   16.5470   -7.6353   -6.0666 C   0  0  1  0  0  0  0  0  0  0  0  0
   15.8012   -6.8209   -5.0300 C   0  0  0  0  0  0  0  0  0  0  0  0
   15.0682   -5.6489   -5.6328 C   0  0  2  0  0  0  0  0  0  0  0  0
   13.9063   -6.0270   -6.2820 O   0  0  0  0  0  0  0  0  0  0  0  0
   15.9592   -4.7963   -6.5102 C   0  0  2  0  0  0  0  0  0  0  0  0
   15.2003   -3.7996   -7.0767 O   0  0  0  0  0  0  0  0  0  0  0  0
   16.6036   -5.7058   -7.5579 C   0  0  1  0  0  0  0  0  0  0  0  0
   17.3275   -4.9261   -8.4289 O   0  0  0  0  0  0  0  0  0  0  0  0
   17.4814   -6.6724   -6.7896 C   0  0  1  0  0  0  0  0  0  0  0  0
   18.2088   -5.8919   -5.7792 N   0  0  0  0  0  0  0  0  0  0  0  0
   19.6383   -5.9571   -6.0161 C   0  0  0  0  0  3  0  0  0  0  0  0
   20.3769   -5.7576   -4.6845 C   0  0  2  0  0  0  0  0  0  0  0  0
   19.6837   -6.6075   -3.6677 C   0  0  0  0  0  0  0  0  0  0  0  0
   20.4272   -4.4349   -4.4344 O   0  0  0  0  0  0  0  0  0  0  0  0
   19.8471   -3.9481   -3.3201 C   0  0  1  0  0  0  0  0  0  0  0  0
   20.3983   -4.3643   -2.1205 O   0  0  0  0  0  0  0  0  0  0  0  0
   19.8811   -2.4199   -3.3194 C   0  0  2  0  0  0  0  0  0  0  0  0
   20.6145   -1.9648   -2.2042 O   0  0  0  0  0  0  0  0  0  0  0  0
   18.4510   -1.9570   -3.2044 C   0  0  2  0  0  0  0  0  0  0  0  0
   18.1731   -1.6401   -1.8862 O   0  0  0  0  0  0  0  0  0  0  0  0
   17.4609   -2.9453   -3.7418 C   0  0  0  0  0  3  0  0  0  0  0  0
   16.0629   -2.7371   -3.2546 C   0  0  0  0  0  0  0  0  0  0  0  0
   15.3870   -1.6667   -4.0788 C   0  0  0  0  0  3  0  0  0  0  0  0
   14.1693   -2.1655   -4.5933 O   0  0  0  0  0  0  0  0  0  0  0  0
  2  1  1  1
  2  3  1  0
  3  4  1  0
  4  5  1  6
  4  6  1  0
  6  7  1  6
  6  8  1  0
  8  9  1  6
  8 10  1  0
 10 11  1  1
 11 12  1  0
 12 13  1  0
 13 14  1  1
 13 15  1  0
 15 16  1  0
 16 17  1  1
 16 18  1  0
 18 19  1  1
 18 20  1  0
 20 21  1  1
 20 22  1  0
 22 23  1  0
 23 24  1  0
 24 25  1  0
 10  2  1  0
M  RAD  3  12   2  22   2  24   2
M  END
>  <docking_score>  (3) 
-3.0710000000000002

$$$$
