
     RDKit          3D

 73 76  0  0  0  0  0  0  0  0999 V2000
    9.9760   13.8279   14.0366 C   0  0  0  0  0  0  0  0  0  0  0  0
   10.5244   12.8538   13.0364 C   0  0  0  0  0  0  0  0  0  0  0  0
   11.7837   12.0973   13.3389 C   0  0  0  0  0  0  0  0  0  0  0  0
    9.8133   12.6362   11.7337 C   0  0  0  0  0  0  0  0  0  0  0  0
   10.3687   11.6718   10.7280 C   0  0  0  0  0  0  0  0  0  0  0  0
    9.4898   10.6032   10.1486 C   0  0  0  0  0  0  0  0  0  0  0  0
   10.0860    9.2995    9.7070 C   0  0  0  0  0  0  0  0  0  0  0  0
   10.7115    8.3812   10.7146 C   0  0  0  0  0  0  0  0  0  0  0  0
   10.0566    8.9142    8.2576 C   0  0  0  0  0  3  0  0  0  0  0  0
   10.6953    7.6333    7.8090 C   0  0  0  0  0  0  0  0  0  0  0  0
    9.5304    6.7464    7.4827 C   0  0  0  0  0  0  0  0  0  0  0  0
    8.9381    5.4496    7.0164 C   0  0  0  0  0  0  0  0  0  0  0  0
    7.4584    5.6853    7.0858 C   0  0  0  0  0  0  0  0  0  0  0  0
    6.5382    4.9556    6.1526 C   0  0  0  0  0  0  0  0  0  0  0  0
    6.6701    5.1432    4.6703 C   0  0  0  0  0  0  0  0  0  0  0  0
    7.6263    6.1625    4.1254 C   0  0  0  0  0  2  0  0  0  0  0  0
    9.0541    4.0399    6.5170 C   0  0  0  0  0  0  0  0  0  0  0  0
    9.8517    2.8404    6.0987 N   0  0  0  0  0  3  0  0  0  0  0  0
   11.1482    2.1258    5.8575 C   0  0  0  0  0  0  0  0  0  0  0  0
   12.6467    2.0597    5.8486 C   0  0  0  0  0  0  0  0  0  0  0  0
   14.1214    1.7966    5.7695 C   0  0  0  0  0  0  0  0  0  0  0  0
   14.9701    0.6285    5.3630 O   0  0  0  0  0  0  0  0  0  0  0  0
   14.3958    3.1855    6.2654 C   0  0  0  0  0  0  0  0  0  0  0  0
   12.9211    3.4486    6.3445 C   0  0  0  0  0  0  0  0  0  0  0  0
   13.1956    4.8374    6.8404 C   0  0  0  0  0  0  0  0  0  0  0  0
   12.3469    6.0055    7.2469 C   0  0  0  0  0  0  0  0  0  0  0  0
   14.6701    4.5743    6.7613 C   0  0  0  0  0  0  0  0  0  0  0  0
   14.6837    6.5194    7.4521 C   0  0  0  0  0  0  0  0  0  0  0  0
   13.6053    7.5052    7.7917 C   0  0  0  0  0  0  0  0  0  0  0  0
   12.1659    7.9071    7.9205 C   0  0  0  0  0  0  0  0  0  0  0  0
   12.2310    9.3191    8.4226 N   0  0  0  0  0  0  0  0  0  0  0  0
   11.2102   10.3225    7.9740 C   0  0  0  0  0  0  0  0  0  0  0  0
   11.6303   11.7246    7.6463 C   0  0  0  0  0  0  0  0  0  0  0  0
    9.7692    9.9236    7.8532 C   0  0  0  0  0  0  0  0  0  0  0  0
    9.0981    9.9340    6.5117 N   0  0  0  0  0  0  0  0  0  0  0  0
    9.8565   10.3805    5.2971 C   0  0  0  0  0  0  0  0  0  0  0  0
    9.6605   11.7666    4.7581 C   0  0  0  0  0  0  0  0  0  0  0  0
    8.7517   11.9941    3.5866 C   0  0  0  0  0  0  0  0  0  0  0  0
    7.2699   11.8212    3.7424 C   0  0  0  0  0  0  0  0  0  0  0  0
    6.3556   12.9984    3.5737 C   0  0  0  0  0  2  0  0  0  0  0  0
    6.7023   10.4712    4.0668 C   0  0  0  0  0  0  0  0  0  0  0  0
    5.4844    9.9763    3.3445 C   0  0  0  0  0  0  0  0  0  0  0  0
    4.5970   10.9445    2.6198 C   0  0  0  0  0  2  0  0  0  0  0  0
    5.1538    8.5132    3.3468 C   0  0  0  0  0  0  0  0  0  0  0  0
    5.1768    7.7371    2.0634 C   0  0  0  0  0  0  0  0  0  0  0  0
    4.1211    7.9743    1.0244 C   0  0  0  0  0  2  0  0  0  0  0  0
    6.2554    6.7238    1.8190 C   0  0  0  0  0  0  0  0  0  0  0  0
    6.8168    6.5440    0.4397 C   0  0  0  0  0  0  0  0  0  0  0  0
    7.8955    5.5306    0.1952 C   0  0  0  0  0  0  0  0  0  0  0  0
    7.5506    4.0732    0.1128 N   0  0  0  0  0  0  0  0  0  0  0  0
    9.3190    5.9748    0.0331 C   0  0  0  0  0  0  0  0  0  0  0  0
   10.0997    5.5630   -1.1796 C   0  0  0  0  0  0  0  0  0  0  0  0
   11.4488    6.1636   -1.4428 C   0  0  0  0  0  0  0  0  0  0  0  0
   11.5555    7.5349   -2.0415 C   0  0  0  0  0  0  0  0  0  0  0  0
   12.6912    5.3931   -1.1072 C   0  0  0  0  0  0  0  0  0  0  0  0
   13.1704    4.3067   -2.0238 C   0  0  0  0  0  0  0  0  0  0  0  0
   13.7561    4.6566   -3.3597 C   0  0  0  0  0  0  0  0  0  0  0  0
   15.2344    4.5376   -3.5848 C   0  0  0  0  0  0  0  0  0  0  0  0
   16.0769    5.7730   -3.7026 C   0  0  0  0  0  0  0  0  0  0  0  0
   15.8701    3.1832   -3.6923 C   0  0  0  0  0  0  0  0  0  0  0  0
   15.3135    2.1669   -4.6448 C   0  0  0  0  0  0  0  0  0  0  0  0
   14.4891    1.0260   -4.1268 C   0  0  0  0  0  0  0  0  0  0  0  0
   13.4958    0.3499   -5.0248 C   0  0  0  0  0  0  0  0  0  0  0  0
   13.9357   -0.2021   -6.3485 C   0  0  0  0  0  0  0  0  0  0  0  0
   14.7331   -1.4713   -6.4041 C   0  0  0  0  0  0  0  0  0  0  0  0
   16.1660   -1.4768   -5.9607 C   0  0  0  0  0  0  0  0  0  0  0  0
   14.6577    0.5610   -2.7106 C   0  0  0  0  0  0  0  0  0  0  0  0
   15.4412   -0.6843   -2.4184 C   0  0  0  0  0  0  0  0  0  0  0  0
   15.5254   -2.0538   -1.8122 C   0  0  0  0  0  0  0  0  0  0  0  0
   16.7139   -1.4717   -2.5183 C   0  0  0  0  0  0  0  0  0  0  0  0
   18.1350   -1.5903   -2.9836 C   0  0  0  0  0  0  0  0  0  0  0  0
   19.0552   -2.5836   -2.3381 C   0  0  0  0  0  0  0  0  0  0  0  0
   18.6359   -0.7157   -4.0945 C   0  0  0  0  0  0  0  0  0  0  0  0
  1  2  1  0
  2  3  1  0
  2  4  1  0
  4  5  1  0
  5  6  1  0
  6  7  1  0
  7  8  1  0
  7  9  1  0
  9 10  1  0
 10 11  1  0
 11 12  1  0
 12 13  1  0
 13 14  1  0
 14 15  1  0
 15 16  1  0
 12 17  1  0
 17 18  2  3
 18 19  1  0
 19 20  1  0
 20 21  1  0
 21 22  1  0
 23 21  1  0
 23 24  1  0
 24 25  1  0
 25 26  1  0
 25 27  1  0
 27 28  1  0
 28 29  1  0
 29 30  1  0
 30 31  1  0
 31 32  1  0
 32 33  1  0
 32 34  1  0
 34 35  1  0
 35 36  1  0
 36 37  1  0
 37 38  1  0
 38 39  1  0
 39 40  1  0
 39 41  1  0
 41 42  1  0
 42 43  1  0
 42 44  1  0
 44 45  1  0
 45 46  1  0
 45 47  1  0
 47 48  2  3
 48 49  1  0
 49 50  1  0
 49 51  1  0
 51 52  1  0
 52 53  1  0
 53 54  1  0
 53 55  1  0
 55 56  1  0
 56 57  1  0
 57 58  1  0
 58 59  1  0
 58 60  1  0
 60 61  1  0
 61 62  1  0
 62 63  1  0
 63 64  1  0
 64 65  1  0
 65 66  1  0
 62 67  1  0
 68 67  1  0
 68 69  1  0
 68 70  1  0
 70 71  1  0
 71 72  1  0
 71 73  1  0
 30 10  1  0
 24 20  1  0
 27 23  1  0
 70 69  1  0
M  CHG  1  18   1
M  RAD  6   9   2  16   3  18   2  40   3  43   3  46   3
M  END
>  <docking_score>  (1) 
106.143

$$$$
