
     RDKit          3D

 23 24  0  0  0  0  0  0  0  0999 V2000
   19.2203   -7.6164   -3.8311 C   0  0  0  0  0  0  0  0  0  0  0  0
   18.8265   -6.5587   -4.8601 C   0  0  1  0  0  0  0  0  0  0  0  0
   19.2427   -7.1060   -6.2230 C   0  0  0  0  0  0  0  0  0  0  0  0
   18.6361   -8.4611   -6.4804 C   0  0  2  0  0  0  0  0  0  0  0  0
   18.0425   -8.5078   -7.7459 O   0  0  0  0  0  0  0  0  0  0  0  0
   17.5676   -8.7175   -5.4432 C   0  0  2  0  0  0  0  0  0  0  0  0
   16.9051   -9.9155   -5.6428 O   0  0  0  0  0  0  0  0  0  0  0  0
   16.6068   -7.5596   -5.4307 C   0  0  1  0  0  0  0  0  0  0  0  0
   15.4299   -7.8205   -4.7548 O   0  0  0  0  0  0  0  0  0  0  0  0
   17.3479   -6.3845   -4.9006 C   0  0  1  0  0  0  0  0  0  0  0  0
   16.7551   -5.7988   -3.7273 N   0  0  0  0  0  0  0  0  0  0  0  0
   16.8068   -4.3799   -3.8735 C   0  0  1  0  0  0  0  0  0  0  0  0
   15.5271   -3.7448   -4.3115 C   0  0  0  0  0  0  0  0  0  0  0  0
   15.8040   -2.3549   -4.7403 C   0  0  2  0  0  0  0  0  0  0  0  0
   15.1758   -1.3648   -3.9750 O   0  0  0  0  0  0  0  0  0  0  0  0
   15.4567   -2.1643   -6.2099 C   0  0  0  0  0  0  0  0  0  0  0  0
   14.6713   -1.0048   -6.3679 O   0  0  0  0  0  0  0  0  0  0  0  0
   17.3137   -2.0271   -4.5778 C   0  0  1  0  0  0  0  0  0  0  0  0
   17.6245   -0.7809   -5.0551 O   0  0  0  0  0  0  0  0  0  0  0  0
   17.7291   -2.2386   -3.1415 C   0  0  2  0  0  0  0  0  0  0  0  0
   19.2445   -2.0558   -3.0788 C   0  0  0  0  0  2  0  0  0  0  0  0
   17.4516   -3.6571   -2.7309 C   0  0  1  0  0  0  0  0  0  0  0  0
   16.6338   -3.7391   -1.6000 O   0  0  0  0  0  0  0  0  0  0  0  0
  2  1  1  1
  2  3  1  0
  3  4  1  0
  4  5  1  6
  4  6  1  0
  6  7  1  6
  6  8  1  0
  8  9  1  1
  8 10  1  0
 10 11  1  1
 12 11  1  1
 12 13  1  0
 13 14  1  0
 14 15  1  1
 14 16  1  0
 16 17  1  0
 14 18  1  0
 18 19  1  1
 18 20  1  0
 20 21  1  6
 20 22  1  0
 22 23  1  1
 10  2  1  0
 22 12  1  0
M  RAD  1  21   3
M  END
>  <docking_score>  (1) 
-5.056

$$$$

     RDKit          3D

 23 24  0  0  0  0  0  0  0  0999 V2000
   19.6564   -2.8775   -5.2709 C   0  0  0  0  0  0  0  0  0  0  0  0
   18.7762   -3.8324   -4.4671 C   0  0  1  0  0  0  0  0  0  0  0  0
   19.7238   -4.7582   -3.7086 C   0  0  0  0  0  0  0  0  0  0  0  0
   20.7003   -3.9771   -2.8678 C   0  0  2  0  0  0  0  0  0  0  0  0
   20.7498   -4.4826   -1.5647 O   0  0  0  0  0  0  0  0  0  0  0  0
   20.2411   -2.5390   -2.8038 C   0  0  2  0  0  0  0  0  0  0  0  0
   21.0436   -1.7570   -1.9924 O   0  0  0  0  0  0  0  0  0  0  0  0
   18.8069   -2.5008   -2.3505 C   0  0  1  0  0  0  0  0  0  0  0  0
   18.3806   -1.2459   -1.9584 O   0  0  0  0  0  0  0  0  0  0  0  0
   17.9890   -3.0911   -3.4429 C   0  0  1  0  0  0  0  0  0  0  0  0
   16.9709   -2.2112   -3.9533 N   0  0  0  0  0  0  0  0  0  0  0  0
   16.2500   -2.9166   -4.9634 C   0  0  1  0  0  0  0  0  0  0  0  0
   15.3300   -3.9787   -4.4552 C   0  0  0  0  0  0  0  0  0  0  0  0
   14.9143   -4.8355   -5.5890 C   0  0  2  0  0  0  0  0  0  0  0  0
   13.5430   -4.8162   -5.8716 O   0  0  0  0  0  0  0  0  0  0  0  0
   15.3741   -6.2709   -5.3774 C   0  0  0  0  0  0  0  0  0  0  0  0
   14.4744   -6.9388   -4.5227 O   0  0  0  0  0  0  0  0  0  0  0  0
   15.5582   -4.3360   -6.9115 C   0  0  1  0  0  0  0  0  0  0  0  0
   15.2732   -5.1618   -7.9671 O   0  0  0  0  0  0  0  0  0  0  0  0
   15.1700   -2.8972   -7.1554 C   0  0  2  0  0  0  0  0  0  0  0  0
   15.9554   -2.4189   -8.3753 C   0  0  0  0  0  2  0  0  0  0  0  0
   15.6117   -2.0439   -6.0002 C   0  0  1  0  0  0  0  0  0  0  0  0
   14.5573   -1.3265   -5.4278 O   0  0  0  0  0  0  0  0  0  0  0  0
  2  1  1  1
  2  3  1  0
  3  4  1  0
  4  5  1  1
  4  6  1  0
  6  7  1  1
  6  8  1  0
  8  9  1  6
  8 10  1  0
 10 11  1  6
 12 11  1  1
 12 13  1  0
 13 14  1  0
 14 15  1  6
 14 16  1  0
 16 17  1  0
 14 18  1  0
 18 19  1  6
 18 20  1  0
 20 21  1  6
 20 22  1  0
 22 23  1  1
 10  2  1  0
 22 12  1  0
M  RAD  1  21   3
M  END
>  <docking_score>  (2) 
-4.9329999999999998

$$$$

     RDKit          3D

 23 24  0  0  0  0  0  0  0  0999 V2000
   15.4040   -1.0522   -6.1739 C   0  0  0  0  0  0  0  0  0  0  0  0
   15.9834   -1.7725   -4.9582 C   0  0  1  0  0  0  0  0  0  0  0  0
   14.9591   -2.8295   -4.5535 C   0  0  0  0  0  0  0  0  0  0  0  0
   14.6299   -3.7454   -5.7039 C   0  0  2  0  0  0  0  0  0  0  0  0
   14.7008   -5.0851   -5.3086 O   0  0  0  0  0  0  0  0  0  0  0  0
   15.6388   -3.5197   -6.8058 C   0  0  2  0  0  0  0  0  0  0  0  0
   15.4555   -4.3705   -7.8812 O   0  0  0  0  0  0  0  0  0  0  0  0
   17.0256   -3.6520   -6.2371 C   0  0  1  0  0  0  0  0  0  0  0  0
   18.0114   -3.7753   -7.1978 O   0  0  0  0  0  0  0  0  0  0  0  0
   17.2316   -2.5003   -5.3194 C   0  0  1  0  0  0  0  0  0  0  0  0
   18.3603   -1.6749   -5.6598 N   0  0  0  0  0  0  0  0  0  0  0  0
   19.1951   -1.5788   -4.5060 C   0  0  1  0  0  0  0  0  0  0  0  0
   19.4929   -2.8796   -3.8339 C   0  0  0  0  0  0  0  0  0  0  0  0
   20.0688   -2.6077   -2.4971 C   0  0  2  0  0  0  0  0  0  0  0  0
   21.3825   -3.0579   -2.3177 O   0  0  0  0  0  0  0  0  0  0  0  0
   19.1783   -3.1745   -1.4006 C   0  0  0  0  0  0  0  0  0  0  0  0
   17.8868   -3.4139   -1.9113 O   0  0  0  0  0  0  0  0  0  0  0  0
   20.1799   -1.0773   -2.2549 C   0  0  1  0  0  0  0  0  0  0  0  0
   20.6192   -0.7866   -0.9901 O   0  0  0  0  0  0  0  0  0  0  0  0
   21.0219   -0.4497   -3.3400 C   0  0  2  0  0  0  0  0  0  0  0  0
   20.9625    1.0634   -3.1383 C   0  0  0  0  0  2  0  0  0  0  0  0
   20.4138   -0.7265   -4.6858 C   0  0  1  0  0  0  0  0  0  0  0  0
   21.3050   -1.3572   -5.5589 O   0  0  0  0  0  0  0  0  0  0  0  0
  2  1  1  6
  2  3  1  0
  3  4  1  0
  4  5  1  1
  4  6  1  0
  6  7  1  6
  6  8  1  0
  8  9  1  6
  8 10  1  0
 10 11  1  6
 12 11  1  6
 12 13  1  0
 13 14  1  0
 14 15  1  6
 14 16  1  0
 16 17  1  0
 14 18  1  0
 18 19  1  1
 18 20  1  0
 20 21  1  1
 20 22  1  0
 22 23  1  6
 10  2  1  0
 22 12  1  0
M  RAD  1  21   3
M  END
>  <docking_score>  (3) 
-4.3849999999999998

$$$$
