
     RDKit          3D

 29 31  0  0  0  0  0  0  0  0999 V2000
   15.6463   -2.0396   -2.0663 O   0  0  0  0  0  0  0  0  0  0  0  0
   16.3218   -2.1485   -3.1660 C   0  0  0  0  0  0  0  0  0  0  0  0
   17.7200   -2.2688   -3.0652 N   0  0  0  0  0  0  0  0  0  0  0  0
   18.6655   -1.1500   -3.4667 C   0  0  0  0  0  0  0  0  0  0  0  0
   20.0367   -1.5730   -3.4921 C   0  0  0  0  0  0  0  0  0  0  0  0
   20.4079   -2.6959   -4.3008 C   0  0  0  0  0  0  0  0  0  0  0  0
   19.4444   -2.8663   -5.4794 C   0  0  0  0  0  0  0  0  0  0  0  0
   19.5180   -3.9190   -6.2544 C   0  0  0  0  0  0  0  0  0  0  0  0
   20.5155   -4.8844   -5.9371 C   0  0  0  0  0  0  0  0  0  0  0  0
   20.5033   -6.0681   -6.7192 F   0  0  0  0  0  0  0  0  0  0  0  0
   21.3806   -4.8813   -4.9742 C   0  0  0  0  0  0  0  0  0  0  0  0
   21.2584   -3.7014   -4.1720 C   0  0  0  0  0  0  0  0  0  0  0  0
   15.5026   -2.1129   -4.3601 N   0  0  0  0  0  0  0  0  0  0  0  0
   15.9284   -3.0759   -5.5041 C   0  0  0  0  0  0  0  0  0  0  0  0
   14.3428   -1.1887   -4.1374 C   0  0  0  0  0  0  0  0  0  0  0  0
   14.4065    0.0790   -5.2932 C   0  0  0  0  0  0  0  0  0  0  0  0
   15.1356   -0.7000   -5.9383 C   0  0  0  0  0  0  0  0  0  0  0  0
   15.5491   -1.1538   -6.3111 C   0  0  0  0  0  0  0  0  0  0  0  0
   16.2067   -1.8528   -6.8797 C   0  0  0  0  0  0  0  0  0  0  0  0
   16.9537   -2.2194   -7.7475 C   0  0  0  0  0  0  0  0  0  0  0  0
   17.6648   -3.4965   -7.8744 C   0  0  0  0  0  0  0  0  0  0  0  0
   18.6130   -4.2067   -7.3831 C   0  0  0  0  0  0  0  0  0  0  0  0
   18.9136   -5.4565   -8.1061 N   0  0  0  0  0  0  0  0  0  0  0  0
   17.7894   -6.2539   -8.4696 C   0  0  0  0  0  0  0  0  0  0  0  0
   17.4276   -7.3232   -8.2438 C   0  0  0  0  0  0  0  0  0  0  0  0
   18.2542   -8.3133   -7.3417 C   0  0  0  0  0  0  0  0  0  0  0  0
   17.9737   -8.5582   -6.0885 C   0  0  0  0  0  0  0  0  0  0  0  0
   16.9303   -7.9196   -5.3723 N   0  0  0  0  0  0  0  0  0  0  0  0
   17.2783   -6.2966   -4.4694 Br  0  0  0  0  0  0  0  0  0  0  0  0
  1  2  2  0
  2  3  1  0
  3  4  1  0
  4  5  1  0
  5  6  1  0
  6  7  2  0
  7  8  1  0
  8  9  2  0
  9 10  1  0
  9 11  1  0
 11 12  2  0
  2 13  1  0
 13 14  1  0
 13 15  1  0
 15 16  2  0
 16 17  1  0
 17 18  3  0
 18 19  1  0
 19 20  2  3
 20 21  1  0
 21 22  2  3
 22 23  1  0
 23 24  1  0
 24 25  2  3
 25 26  1  0
 26 27  2  3
 27 28  1  0
 28 29  1  0
 12  6  1  0
 22  8  1  0
 19 14  1  0
M  END
>  <docking_score>  (1) 
-5.1040000000000001

$$$$

     RDKit          3D

 29 31  0  0  0  0  0  0  0  0999 V2000
    7.6812   12.4260    3.2864 O   0  0  0  0  0  0  0  0  0  0  0  0
    6.6207   11.9382    3.8475 C   0  0  0  0  0  0  0  0  0  0  0  0
    5.9599   10.8836    3.1911 N   0  0  0  0  0  0  0  0  0  0  0  0
    4.6138   11.0630    2.5110 C   0  0  0  0  0  0  0  0  0  0  0  0
    4.0317    9.8145    2.1083 C   0  0  0  0  0  0  0  0  0  0  0  0
    3.8317    8.7875    3.0869 C   0  0  0  0  0  0  0  0  0  0  0  0
    3.6709    9.3872    4.4873 C   0  0  0  0  0  0  0  0  0  0  0  0
    3.6266    8.6142    5.5431 C   0  0  0  0  0  0  0  0  0  0  0  0
    3.7483    7.2128    5.3213 C   0  0  0  0  0  0  0  0  0  0  0  0
    3.8114    6.4044    6.4855 F   0  0  0  0  0  0  0  0  0  0  0  0
    3.9023    6.5708    4.2079 C   0  0  0  0  0  0  0  0  0  0  0  0
    3.9300    7.4679    3.0922 C   0  0  0  0  0  0  0  0  0  0  0  0
    6.2678   12.5884    5.0929 N   0  0  0  0  0  0  0  0  0  0  0  0
    5.7354   11.6567    6.2179 C   0  0  0  0  0  0  0  0  0  0  0  0
    6.6178   14.0442    5.0077 C   0  0  0  0  0  0  0  0  0  0  0  0
    5.1920   14.9765    5.2194 C   0  0  0  0  0  0  0  0  0  0  0  0
    4.7317   13.9438    5.7450 C   0  0  0  0  0  0  0  0  0  0  0  0
    4.4720   13.3498    6.0540 C   0  0  0  0  0  0  0  0  0  0  0  0
    4.0640   12.4202    6.5165 C   0  0  0  0  0  0  0  0  0  0  0  0
    3.2437   11.6849    6.9982 C   0  0  0  0  0  0  0  0  0  0  0  0
    3.3825   10.2777    7.3898 C   0  0  0  0  0  0  0  0  0  0  0  0
    3.5235    9.0861    6.9367 C   0  0  0  0  0  0  0  0  0  0  0  0
    3.4823    8.0116    7.9460 N   0  0  0  0  0  0  0  0  0  0  0  0
    2.8895    8.3515    9.1969 C   0  0  0  0  0  0  0  0  0  0  0  0
    3.2720    8.5629   10.2619 C   0  0  0  0  0  0  0  0  0  0  0  0
    4.8000    8.4890   10.6323 C   0  0  0  0  0  0  0  0  0  0  0  0
    5.4119    9.3807   11.3669 C   0  0  0  0  0  0  0  0  0  0  0  0
    4.7913   10.5519   11.8695 N   0  0  0  0  0  0  0  0  0  0  0  0
    5.4099   11.3138   13.4843 Br  0  0  0  0  0  0  0  0  0  0  0  0
  1  2  2  0
  2  3  1  0
  3  4  1  0
  4  5  1  0
  5  6  1  0
  6  7  2  0
  7  8  1  0
  8  9  2  0
  9 10  1  0
  9 11  1  0
 11 12  2  0
  2 13  1  0
 13 14  1  0
 13 15  1  0
 15 16  2  0
 16 17  1  0
 17 18  3  0
 18 19  1  0
 19 20  2  3
 20 21  1  0
 21 22  2  3
 22 23  1  0
 23 24  1  0
 24 25  2  3
 25 26  1  0
 26 27  2  3
 27 28  1  0
 28 29  1  0
 12  6  1  0
 22  8  1  0
 19 14  1  0
M  END
>  <docking_score>  (2) 
-3.7690000000000001

$$$$

     RDKit          3D

 29 31  0  0  0  0  0  0  0  0999 V2000
   20.2117   -3.8406   -1.2172 O   0  0  0  0  0  0  0  0  0  0  0  0
   19.9867   -3.4046   -2.4158 C   0  0  0  0  0  0  0  0  0  0  0  0
   20.2124   -4.2892   -3.4864 N   0  0  0  0  0  0  0  0  0  0  0  0
   21.3786   -4.1269   -4.4458 C   0  0  0  0  0  0  0  0  0  0  0  0
   21.2817   -5.0008   -5.5801 C   0  0  0  0  0  0  0  0  0  0  0  0
   20.1057   -4.9593   -6.3973 C   0  0  0  0  0  0  0  0  0  0  0  0
   19.4350   -3.5840   -6.3249 C   0  0  0  0  0  0  0  0  0  0  0  0
   18.2667   -3.3814   -6.8800 C   0  0  0  0  0  0  0  0  0  0  0  0
   17.6603   -4.4940   -7.5298 C   0  0  0  0  0  0  0  0  0  0  0  0
   16.3476   -4.2827   -8.0246 F   0  0  0  0  0  0  0  0  0  0  0  0
   18.0975   -5.7058   -7.6564 C   0  0  0  0  0  0  0  0  0  0  0  0
   19.3816   -5.8601   -7.0416 C   0  0  0  0  0  0  0  0  0  0  0  0
   19.5386   -2.0279   -2.4614 N   0  0  0  0  0  0  0  0  0  0  0  0
   18.4418   -1.7058   -3.5154 C   0  0  0  0  0  0  0  0  0  0  0  0
   20.2042   -1.2540   -1.3629 C   0  0  0  0  0  0  0  0  0  0  0  0
   21.1247    0.0201   -2.0534 C   0  0  0  0  0  0  0  0  0  0  0  0
   20.3938   -0.1453   -3.0499 C   0  0  0  0  0  0  0  0  0  0  0  0
   19.9662   -0.2378   -3.6195 C   0  0  0  0  0  0  0  0  0  0  0  0
   19.3136   -0.3959   -4.5103 C   0  0  0  0  0  0  0  0  0  0  0  0
   18.9197   -0.2629   -5.6385 C   0  0  0  0  0  0  0  0  0  0  0  0
   17.8447   -0.9818   -6.3314 C   0  0  0  0  0  0  0  0  0  0  0  0
   17.5110   -2.1157   -6.8294 C   0  0  0  0  0  0  0  0  0  0  0  0
   16.2209   -2.1433   -7.5434 N   0  0  0  0  0  0  0  0  0  0  0  0
   15.0663   -1.8541   -6.7593 C   0  0  0  0  0  0  0  0  0  0  0  0
   14.6884   -2.1382   -5.7096 C   0  0  0  0  0  0  0  0  0  0  0  0
   15.5020   -3.0910   -4.7568 C   0  0  0  0  0  0  0  0  0  0  0  0
   15.4272   -4.3955   -4.7999 C   0  0  0  0  0  0  0  0  0  0  0  0
   14.5623   -5.1099   -5.6666 N   0  0  0  0  0  0  0  0  0  0  0  0
   12.7212   -4.6865   -5.7017 Br  0  0  0  0  0  0  0  0  0  0  0  0
  1  2  2  0
  2  3  1  0
  3  4  1  0
  4  5  1  0
  5  6  1  0
  6  7  2  0
  7  8  1  0
  8  9  2  0
  9 10  1  0
  9 11  1  0
 11 12  2  0
  2 13  1  0
 13 14  1  0
 13 15  1  0
 15 16  2  0
 16 17  1  0
 17 18  3  0
 18 19  1  0
 19 20  2  3
 20 21  1  0
 21 22  2  3
 22 23  1  0
 23 24  1  0
 24 25  2  3
 25 26  1  0
 26 27  2  3
 27 28  1  0
 28 29  1  0
 12  6  1  0
 22  8  1  0
 19 14  1  0
M  END
>  <docking_score>  (3) 
-3.4079999999999999

$$$$
