
     RDKit          3D

 25 27  0  0  0  0  0  0  0  0999 V2000
   19.9145    1.3415   -5.4978 C   0  0  0  0  0  0  0  0  0  0  0  0
   20.8703    0.1629   -5.5461 C   0  0  2  0  0  0  0  0  0  0  0  0
   20.7714   -0.5232   -6.9132 C   0  0  0  0  0  0  0  0  0  0  0  0
   19.9248   -1.5939   -6.2364 C   0  0  2  0  0  0  0  0  0  0  0  0
   18.4810   -1.4402   -6.5932 C   0  0  0  0  0  3  0  0  0  0  0  0
   18.1364   -2.2369   -7.8437 C   0  0  1  0  0  0  0  0  0  0  0  0
   19.0864   -3.2351   -8.0471 O   0  0  0  0  0  0  0  0  0  0  0  0
   16.7554   -2.8378   -7.7298 C   0  0  0  0  0  3  0  0  0  0  0  0
   15.7896   -1.8663   -7.1306 C   0  0  0  0  0  0  0  0  0  0  0  0
   20.3006   -1.0748   -4.8850 C   0  0  2  0  0  0  0  0  0  0  0  0
   19.1777   -0.8157   -3.9290 C   0  0  0  0  0  3  0  0  0  0  0  0
   19.3649   -1.7810   -2.7540 C   0  0  0  0  0  0  0  0  0  0  0  0
   18.0141   -2.0798   -2.1169 C   0  0  0  0  0  0  0  0  0  0  0  0
   17.6343   -3.4768   -2.5348 C   0  0  2  0  0  0  0  0  0  0  0  0
   18.7102   -4.3098   -2.7171 O   0  0  0  0  0  0  0  0  0  0  0  0
   16.8264   -3.4084   -3.8135 C   0  0  2  0  0  0  0  0  0  0  0  0
   15.8379   -2.4263   -3.7442 O   0  0  0  0  0  0  0  0  0  0  0  0
   16.6736   -4.1320   -1.5749 C   0  0  0  0  0  3  0  0  0  0  0  0
   16.1106   -5.2600   -2.4228 C   0  0  0  0  0  3  0  0  0  0  0  0
   16.2293   -4.7999   -3.8591 C   0  0  2  0  0  0  0  0  0  0  0  0
   17.1414   -5.6649   -4.6682 C   0  0  2  0  0  0  0  0  0  0  0  0
   17.9675   -5.1296   -5.6306 O   0  0  0  0  0  0  0  0  0  0  0  0
   17.0132   -6.1670   -5.9286 C   0  0  1  0  0  0  0  0  0  0  0  0
   17.6011   -7.5046   -6.3357 C   0  0  0  0  0  0  0  0  0  0  0  0
   17.1163   -8.4378   -5.3977 O   0  0  0  0  0  0  0  0  0  0  0  0
  2  1  1  6
  2  3  1  0
  3  4  1  0
  4  5  1  6
  5  6  1  0
  6  7  1  1
  6  8  1  0
  8  9  1  0
  2 10  1  0
 10 11  1  1
 11 12  1  0
 12 13  1  0
 13 14  1  0
 14 15  1  6
 14 16  1  0
 16 17  1  1
 14 18  1  0
 18 19  1  0
 20 19  1  1
 20 21  1  0
 21 22  1  6
 22 23  1  0
 23 24  1  1
 24 25  1  0
 10  4  1  0
 20 16  1  0
 23 21  1  0
M  RAD  5   5   2   8   2  11   2  18   2  19   2
M  END
>  <docking_score>  (1) 
-4.0789999999999997

$$$$

     RDKit          3D

 25 27  0  0  0  0  0  0  0  0999 V2000
   19.5205   -0.7661   -6.5529 C   0  0  0  0  0  0  0  0  0  0  0  0
   18.9979   -2.0839   -7.0960 C   0  0  2  0  0  0  0  0  0  0  0  0
   17.5209   -1.9332   -7.4771 C   0  0  0  0  0  0  0  0  0  0  0  0
   17.1844   -2.6539   -6.1778 C   0  0  2  0  0  0  0  0  0  0  0  0
   16.6623   -1.6971   -5.1542 C   0  0  0  0  0  3  0  0  0  0  0  0
   15.1423   -1.7423   -5.0849 C   0  0  1  0  0  0  0  0  0  0  0  0
   14.7094   -3.0646   -5.0183 O   0  0  0  0  0  0  0  0  0  0  0  0
   14.6391   -0.9616   -3.8939 C   0  0  0  0  0  3  0  0  0  0  0  0
   13.5317   -0.0351   -4.2821 C   0  0  0  0  0  0  0  0  0  0  0  0
   18.6142   -3.0537   -5.9979 C   0  0  2  0  0  0  0  0  0  0  0  0
   19.2291   -2.7665   -4.6632 C   0  0  0  0  0  3  0  0  0  0  0  0
   20.4992   -3.6182   -4.5682 C   0  0  0  0  0  0  0  0  0  0  0  0
   20.3313   -4.6676   -3.4771 C   0  0  0  0  0  0  0  0  0  0  0  0
   20.0169   -5.9690   -4.1686 C   0  0  2  0  0  0  0  0  0  0  0  0
   20.3773   -5.9911   -5.4930 O   0  0  0  0  0  0  0  0  0  0  0  0
   18.5345   -6.2502   -4.0440 C   0  0  2  0  0  0  0  0  0  0  0  0
   18.0808   -6.0450   -2.7407 O   0  0  0  0  0  0  0  0  0  0  0  0
   20.6352   -7.1596   -3.4800 C   0  0  0  0  0  3  0  0  0  0  0  0
   19.8185   -8.3059   -4.0520 C   0  0  0  0  0  3  0  0  0  0  0  0
   18.4789   -7.7137   -4.4311 C   0  0  2  0  0  0  0  0  0  0  0  0
   18.2092   -7.7907   -5.8995 C   0  0  2  0  0  0  0  0  0  0  0  0
   17.2611   -8.6493   -6.4084 O   0  0  0  0  0  0  0  0  0  0  0  0
   18.6347   -8.6785   -6.8417 C   0  0  1  0  0  0  0  0  0  0  0  0
   18.8781   -8.2798   -8.2848 C   0  0  0  0  0  0  0  0  0  0  0  0
   18.4695   -6.9349   -8.3851 O   0  0  0  0  0  0  0  0  0  0  0  0
  2  1  1  1
  2  3  1  0
  3  4  1  0
  4  5  1  1
  5  6  1  0
  6  7  1  1
  6  8  1  0
  8  9  1  0
  2 10  1  0
 10 11  1  1
 11 12  1  0
 12 13  1  0
 13 14  1  0
 14 15  1  6
 14 16  1  0
 16 17  1  1
 14 18  1  0
 18 19  1  0
 20 19  1  6
 20 21  1  0
 21 22  1  1
 22 23  1  0
 23 24  1  6
 24 25  1  0
 10  4  1  0
 20 16  1  0
 23 21  1  0
M  RAD  5   5   2   8   2  11   2  18   2  19   2
M  END
>  <docking_score>  (2) 
-3.3450000000000002

$$$$

     RDKit          3D

 25 27  0  0  0  0  0  0  0  0999 V2000
    3.8229   10.6327   10.3293 C   0  0  0  0  0  0  0  0  0  0  0  0
    5.0892   10.1784   11.0328 C   0  0  2  0  0  0  0  0  0  0  0  0
    4.7345    9.6017   12.4079 C   0  0  0  0  0  0  0  0  0  0  0  0
    5.2076   10.9209   13.0055 C   0  0  2  0  0  0  0  0  0  0  0  0
    4.0478   11.7588   13.4397 C   0  0  0  0  0  3  0  0  0  0  0  0
    4.3720   12.5280   14.7126 C   0  0  1  0  0  0  0  0  0  0  0  0
    4.3720   13.8965   14.4532 O   0  0  0  0  0  0  0  0  0  0  0  0
    3.3803   12.1975   15.8028 C   0  0  0  0  0  3  0  0  0  0  0  0
    3.8278   11.0158   16.6022 C   0  0  0  0  0  0  0  0  0  0  0  0
    5.8236   11.3209   11.7027 C   0  0  2  0  0  0  0  0  0  0  0  0
    5.4746   12.6817   11.1844 C   0  0  0  0  0  3  0  0  0  0  0  0
    6.7636   13.5094   11.2102 C   0  0  0  0  0  0  0  0  0  0  0  0
    7.8623   12.7238   11.9143 C   0  0  0  0  0  0  0  0  0  0  0  0
    8.9498   13.7082   12.2588 C   0  0  2  0  0  0  0  0  0  0  0  0
   10.1822   13.3655   11.7606 O   0  0  0  0  0  0  0  0  0  0  0  0
    9.0341   13.8457   13.7642 C   0  0  2  0  0  0  0  0  0  0  0  0
    7.7713   13.9984   14.3372 O   0  0  0  0  0  0  0  0  0  0  0  0
    8.6251   15.1136   11.8191 C   0  0  0  0  0  3  0  0  0  0  0  0
    9.5893   15.9315   12.6614 C   0  0  0  0  0  3  0  0  0  0  0  0
    9.8647   15.1054   13.8986 C   0  0  2  0  0  0  0  0  0  0  0  0
   11.2990   14.7000   14.0137 C   0  0  2  0  0  0  0  0  0  0  0  0
   11.6580   13.4869   14.5567 O   0  0  0  0  0  0  0  0  0  0  0  0
   12.1566   14.7364   15.0721 C   0  0  1  0  0  0  0  0  0  0  0  0
   13.6461   14.9693   14.9053 C   0  0  0  0  0  0  0  0  0  0  0  0
   13.8120   15.4683   13.5978 O   0  0  0  0  0  0  0  0  0  0  0  0
  2  1  1  1
  2  3  1  0
  3  4  1  0
  4  5  1  6
  5  6  1  0
  6  7  1  6
  6  8  1  0
  8  9  1  0
  2 10  1  0
 10 11  1  6
 11 12  1  0
 12 13  1  0
 13 14  1  0
 14 15  1  6
 14 16  1  0
 16 17  1  6
 14 18  1  0
 18 19  1  0
 20 19  1  6
 20 21  1  0
 21 22  1  1
 22 23  1  0
 23 24  1  6
 24 25  1  0
 10  4  1  0
 20 16  1  0
 23 21  1  0
M  RAD  5   5   2   8   2  11   2  18   2  19   2
M  END
>  <docking_score>  (3) 
-3.181

$$$$
