
     RDKit          3D

 17 17  0  0  0  0  0  0  0  0999 V2000
   17.0041   -4.0368   -5.4890 O   0  0  0  0  0  0  0  0  0  0  0  0
   16.5796   -3.9270   -6.7888 C   0  0  0  0  0  0  0  0  0  0  0  0
   15.1796   -3.4524   -6.9601 C   0  0  0  0  0  3  0  0  0  0  0  0
   15.0847   -1.9881   -7.0445 N   0  0  0  0  0  0  0  0  0  0  0  0
   15.1051   -1.5054   -5.6743 C   0  0  2  0  0  0  0  0  0  0  0  0
   14.7039   -0.0732   -5.5451 C   0  0  0  0  0  0  0  0  0  0  0  0
   13.8050    0.1023   -4.5112 O   0  0  0  0  0  0  0  0  0  0  0  0
   16.4502   -1.7868   -5.1021 C   0  0  1  0  0  0  0  0  0  0  0  0
   17.4154   -0.8465   -5.4223 O   0  0  0  0  0  0  0  0  0  0  0  0
   16.4558   -2.1061   -3.6494 C   0  0  2  0  0  0  0  0  0  0  0  0
   17.7035   -1.8027   -3.1295 O   0  0  0  0  0  0  0  0  0  0  0  0
   16.0461   -3.5112   -3.3561 C   0  0  0  0  0  3  0  0  0  0  0  0
   16.0392   -4.3996   -4.5870 C   0  0  2  0  0  0  0  0  0  0  0  0
   16.3625   -5.8030   -4.1018 C   0  0  2  0  0  0  0  0  0  0  0  0
   17.7181   -6.0717   -4.1171 O   0  0  0  0  0  1  0  0  0  0  0  0
   15.5940   -6.8559   -4.8485 C   0  0  0  0  0  0  0  0  0  0  0  0
   14.2292   -6.7579   -4.7026 O   0  0  0  0  0  1  0  0  0  0  0  0
  1  2  1  0
  2  3  1  0
  3  4  1  0
  4  5  1  0
  5  6  1  6
  6  7  1  0
  5  8  1  0
  8  9  1  1
  8 10  1  0
 10 11  1  6
 10 12  1  0
 13 12  1  1
 13 14  1  0
 14 15  1  6
 14 16  1  0
 16 17  1  0
 13  1  1  0
M  CHG  2  15  -1  17  -1
M  RAD  2   3   2  12   2
M  END
>  <docking_score>  (1) 
-4.3689999999999998

$$$$

     RDKit          3D

 17 17  0  0  0  0  0  0  0  0999 V2000
   16.8745   -2.8596   -4.6872 O   0  0  0  0  0  0  0  0  0  0  0  0
   17.9490   -2.4643   -5.4428 C   0  0  0  0  0  0  0  0  0  0  0  0
   18.5545   -1.1626   -5.0510 C   0  0  0  0  0  3  0  0  0  0  0  0
   19.6101   -1.3113   -4.0390 N   0  0  0  0  0  0  0  0  0  0  0  0
   18.9285   -1.4056   -2.7595 C   0  0  2  0  0  0  0  0  0  0  0  0
   19.8414   -1.2460   -1.5891 C   0  0  0  0  0  0  0  0  0  0  0  0
   20.6452   -0.1317   -1.7310 O   0  0  0  0  0  0  0  0  0  0  0  0
   18.1654   -2.6834   -2.7322 C   0  0  1  0  0  0  0  0  0  0  0  0
   18.9195   -3.7919   -2.3850 O   0  0  0  0  0  0  0  0  0  0  0  0
   16.8867   -2.6304   -1.9743 C   0  0  2  0  0  0  0  0  0  0  0  0
   16.5656   -3.9089   -1.5485 O   0  0  0  0  0  0  0  0  0  0  0  0
   15.7761   -1.9930   -2.7414 C   0  0  0  0  0  3  0  0  0  0  0  0
   16.0819   -1.8444   -4.2209 C   0  0  2  0  0  0  0  0  0  0  0  0
   14.7473   -1.9295   -4.9428 C   0  0  2  0  0  0  0  0  0  0  0  0
   14.4600   -3.2087   -5.3801 O   0  0  0  0  0  1  0  0  0  0  0  0
   14.6422   -0.9376   -6.0662 C   0  0  0  0  0  0  0  0  0  0  0  0
   14.7945    0.3713   -5.6695 O   0  0  0  0  0  1  0  0  0  0  0  0
  1  2  1  0
  2  3  1  0
  3  4  1  0
  4  5  1  0
  5  6  1  1
  6  7  1  0
  5  8  1  0
  8  9  1  1
  8 10  1  0
 10 11  1  6
 10 12  1  0
 13 12  1  1
 13 14  1  0
 14 15  1  6
 14 16  1  0
 16 17  1  0
 13  1  1  0
M  CHG  2  15  -1  17  -1
M  RAD  2   3   2  12   2
M  END
>  <docking_score>  (2) 
-4.2050000000000001

$$$$

     RDKit          3D

 17 17  0  0  0  0  0  0  0  0999 V2000
   15.9374   -4.6602   -3.3143 O   0  0  0  0  0  0  0  0  0  0  0  0
   16.7969   -5.1319   -2.3549 C   0  0  0  0  0  0  0  0  0  0  0  0
   18.2351   -4.8298   -2.5890 C   0  0  0  0  0  3  0  0  0  0  0  0
   18.6465   -3.5463   -2.0025 N   0  0  0  0  0  0  0  0  0  0  0  0
   18.2527   -2.5247   -2.9574 C   0  0  2  0  0  0  0  0  0  0  0  0
   18.8648   -1.1908   -2.6835 C   0  0  0  0  0  0  0  0  0  0  0  0
   19.4953   -1.1736   -1.4547 O   0  0  0  0  0  0  0  0  0  0  0  0
   16.7655   -2.4832   -3.0074 C   0  0  1  0  0  0  0  0  0  0  0  0
   16.1808   -1.7334   -2.0004 O   0  0  0  0  0  0  0  0  0  0  0  0
   16.1952   -2.1515   -4.3403 C   0  0  2  0  0  0  0  0  0  0  0  0
   14.9332   -1.6078   -4.1642 O   0  0  0  0  0  0  0  0  0  0  0  0
   16.1862   -3.3116   -5.2798 C   0  0  0  0  0  3  0  0  0  0  0  0
   16.4378   -4.6399   -4.5893 C   0  0  2  0  0  0  0  0  0  0  0  0
   15.6910   -5.6884   -5.3970 C   0  0  2  0  0  0  0  0  0  0  0  0
   14.7682   -6.3850   -4.6398 O   0  0  0  0  0  1  0  0  0  0  0  0
   16.6212   -6.6261   -6.1129 C   0  0  0  0  0  0  0  0  0  0  0  0
   17.8250   -6.8128   -5.4730 O   0  0  0  0  0  1  0  0  0  0  0  0
  1  2  1  0
  2  3  1  0
  3  4  1  0
  4  5  1  0
  5  6  1  1
  6  7  1  0
  5  8  1  0
  8  9  1  1
  8 10  1  0
 10 11  1  1
 10 12  1  0
 13 12  1  6
 13 14  1  0
 14 15  1  1
 14 16  1  0
 16 17  1  0
 13  1  1  0
M  CHG  2  15  -1  17  -1
M  RAD  2   3   2  12   2
M  END
>  <docking_score>  (3) 
-4.1909999999999998

$$$$
