
     RDKit          3D

 27 30  0  0  0  0  0  0  0  0999 V2000
   16.0938   -1.2618   -6.4552 O   0  0  0  0  0  0  0  0  0  0  0  0
   16.9977   -2.1003   -6.2383 C   0  0  0  0  0  0  0  0  0  0  0  0
   18.3138   -1.5957   -5.8573 C   0  0  0  0  0  0  0  0  0  0  0  0
   18.5449   -0.2197   -5.7417 C   0  0  0  0  0  0  0  0  0  0  0  0
   19.8070    0.1854   -5.3793 C   0  0  0  0  0  0  0  0  0  0  0  0
   20.8091   -0.7286   -5.1383 C   0  0  0  0  0  0  0  0  0  0  0  0
   20.5864   -2.0850   -5.2508 C   0  0  0  0  0  0  0  0  0  0  0  0
   19.3263   -2.5070   -5.6132 C   0  0  0  0  0  0  0  0  0  0  0  0
   19.0431   -3.8997   -5.7437 N   0  0  0  0  0  0  0  0  0  0  0  0
   17.8981   -4.3767   -6.0766 C   0  0  0  0  0  0  0  0  0  0  0  0
   17.7601   -5.8206   -6.1691 C   0  0  0  0  0  0  0  0  0  0  0  0
   17.4943   -6.4663   -7.3623 C   0  0  0  0  0  0  0  0  0  0  0  0
   17.3602   -7.8273   -7.4723 C   0  0  0  0  0  0  0  0  0  0  0  0
   17.4936   -8.5954   -6.3541 C   0  0  0  0  0  0  0  0  0  0  0  0
   17.3220  -10.3567   -6.4840 Cl  0  0  0  0  0  0  0  0  0  0  0  0
   17.7582   -8.0024   -5.1414 C   0  0  0  0  0  0  0  0  0  0  0  0
   17.8879   -6.6339   -5.0607 C   0  0  0  0  0  0  0  0  0  0  0  0
   16.7318   -3.5301   -6.3654 C   0  0  1  0  0  0  0  0  0  0  0  0
   15.4735   -3.9945   -5.7015 C   0  0  0  0  0  0  0  0  0  0  0  0
   14.9398   -3.0208   -4.6835 C   0  0  0  0  0  0  0  0  0  0  0  0
   15.8087   -3.1548   -3.4632 C   0  0  0  0  0  0  0  0  0  0  0  0
   16.1714   -4.3864   -3.1102 C   0  0  0  0  0  0  0  0  0  0  0  0
   17.0357   -4.7721   -1.9304 C   0  0  0  0  0  0  0  0  0  0  0  0
   18.4079   -4.2211   -2.1523 C   0  0  0  0  0  0  0  0  0  0  0  0
   18.5030   -2.7483   -2.0753 C   0  0  0  0  0  0  0  0  0  0  0  0
   17.5801   -1.8502   -2.3282 C   0  0  0  0  0  0  0  0  0  0  0  0
   16.1846   -1.9061   -2.7564 C   0  0  0  0  0  0  0  0  0  0  0  0
  1  2  2  0
  2  3  1  0
  3  4  2  0
  4  5  1  0
  5  6  2  0
  6  7  1  0
  7  8  2  0
  8  9  1  0
  9 10  2  0
 10 11  1  0
 11 12  2  0
 12 13  1  0
 13 14  2  0
 14 15  1  0
 14 16  1  0
 16 17  2  0
 10 18  1  0
 18 19  1  1
 19 20  1  0
 20 21  1  0
 21 22  2  0
 22 23  1  0
 23 24  1  0
 24 25  1  0
 25 26  2  0
 26 27  1  0
 18  2  1  0
  8  3  1  0
 17 11  1  0
 27 21  1  0
M  END
>  <docking_score>  (1) 
-5.4550000000000001

$$$$

     RDKit          3D

 27 30  0  0  0  0  0  0  0  0999 V2000
   19.7482   -0.8590   -6.4447 O   0  0  0  0  0  0  0  0  0  0  0  0
   19.6177   -1.9360   -5.8199 C   0  0  0  0  0  0  0  0  0  0  0  0
   19.6432   -1.8813   -4.3611 C   0  0  0  0  0  0  0  0  0  0  0  0
   19.8085   -0.6609   -3.6951 C   0  0  0  0  0  0  0  0  0  0  0  0
   19.8231   -0.6826   -2.3212 C   0  0  0  0  0  0  0  0  0  0  0  0
   19.6805   -1.8618   -1.6236 C   0  0  0  0  0  0  0  0  0  0  0  0
   19.5174   -3.0665   -2.2750 C   0  0  0  0  0  0  0  0  0  0  0  0
   19.5006   -3.0614   -3.6524 C   0  0  0  0  0  0  0  0  0  0  0  0
   19.3347   -4.2809   -4.3750 N   0  0  0  0  0  0  0  0  0  0  0  0
   19.3078   -4.3641   -5.6563 C   0  0  0  0  0  0  0  0  0  0  0  0
   19.1314   -5.6782   -6.2520 C   0  0  0  0  0  0  0  0  0  0  0  0
   19.9931   -6.1815   -7.2087 C   0  0  0  0  0  0  0  0  0  0  0  0
   19.8455   -7.4184   -7.7840 C   0  0  0  0  0  0  0  0  0  0  0  0
   18.7984   -8.2026   -7.4012 C   0  0  0  0  0  0  0  0  0  0  0  0
   18.5971   -9.8042   -8.1382 Cl  0  0  0  0  0  0  0  0  0  0  0  0
   17.9115   -7.7489   -6.4526 C   0  0  0  0  0  0  0  0  0  0  0  0
   18.0844   -6.5031   -5.8921 C   0  0  0  0  0  0  0  0  0  0  0  0
   19.4468   -3.1959   -6.5373 C   0  0  1  0  0  0  0  0  0  0  0  0
   18.4398   -3.1550   -7.6436 C   0  0  0  0  0  0  0  0  0  0  0  0
   17.4593   -2.0181   -7.5183 C   0  0  0  0  0  0  0  0  0  0  0  0
   16.4687   -2.4192   -6.4600 C   0  0  0  0  0  0  0  0  0  0  0  0
   16.0021   -3.6654   -6.5082 C   0  0  0  0  0  0  0  0  0  0  0  0
   15.0058   -4.2959   -5.5609 C   0  0  0  0  0  0  0  0  0  0  0  0
   15.6306   -4.3742   -4.2047 C   0  0  0  0  0  0  0  0  0  0  0  0
   15.8328   -3.0696   -3.5405 C   0  0  0  0  0  0  0  0  0  0  0  0
   16.0164   -1.8895   -4.0845 C   0  0  0  0  0  0  0  0  0  0  0  0
   16.0942   -1.3933   -5.4563 C   0  0  0  0  0  0  0  0  0  0  0  0
  1  2  2  0
  2  3  1  0
  3  4  2  0
  4  5  1  0
  5  6  2  0
  6  7  1  0
  7  8  2  0
  8  9  1  0
  9 10  2  0
 10 11  1  0
 11 12  2  0
 12 13  1  0
 13 14  2  0
 14 15  1  0
 14 16  1  0
 16 17  2  0
 10 18  1  0
 18 19  1  1
 19 20  1  0
 20 21  1  0
 21 22  2  0
 22 23  1  0
 23 24  1  0
 24 25  1  0
 25 26  2  0
 26 27  1  0
 18  2  1  0
  8  3  1  0
 17 11  1  0
 27 21  1  0
M  END
>  <docking_score>  (2) 
-4.6799999999999997

$$$$

     RDKit          3D

 27 30  0  0  0  0  0  0  0  0999 V2000
    3.1349    9.1443    3.3914 O   0  0  0  0  0  0  0  0  0  0  0  0
    3.2273    8.6880    4.5535 C   0  0  0  0  0  0  0  0  0  0  0  0
    3.0232    7.2540    4.7374 C   0  0  0  0  0  0  0  0  0  0  0  0
    2.7348    6.4279    3.6445 C   0  0  0  0  0  0  0  0  0  0  0  0
    2.5545    5.0879    3.8897 C   0  0  0  0  0  0  0  0  0  0  0  0
    2.6538    4.5750    5.1644 C   0  0  0  0  0  0  0  0  0  0  0  0
    2.9378    5.3846    6.2442 C   0  0  0  0  0  0  0  0  0  0  0  0
    3.1212    6.7304    6.0147 C   0  0  0  0  0  0  0  0  0  0  0  0
    3.4171    7.6118    7.0975 N   0  0  0  0  0  0  0  0  0  0  0  0
    3.6021    8.8763    6.9707 C   0  0  0  0  0  0  0  0  0  0  0  0
    3.8964    9.6472    8.1673 C   0  0  0  0  0  0  0  0  0  0  0  0
    4.4390    9.0763    9.3036 C   0  0  0  0  0  0  0  0  0  0  0  0
    4.7246    9.7847   10.4434 C   0  0  0  0  0  0  0  0  0  0  0  0
    4.4647   11.1225   10.4706 C   0  0  0  0  0  0  0  0  0  0  0  0
    4.8298   12.0491   11.9391 Cl  0  0  0  0  0  0  0  0  0  0  0  0
    3.9247   11.7396    9.3661 C   0  0  0  0  0  0  0  0  0  0  0  0
    3.6482   11.0036    8.2356 C   0  0  0  0  0  0  0  0  0  0  0  0
    3.5290    9.5700    5.6770 C   0  0  1  0  0  0  0  0  0  0  0  0
    4.6606   10.5205    5.4406 C   0  0  0  0  0  0  0  0  0  0  0  0
    5.8913    9.8576    4.8791 C   0  0  0  0  0  0  0  0  0  0  0  0
    6.4747   10.8136    3.8752 C   0  0  0  0  0  0  0  0  0  0  0  0
    5.6572   11.2723    2.9294 C   0  0  0  0  0  0  0  0  0  0  0  0
    6.0095   12.2359    1.8182 C   0  0  0  0  0  0  0  0  0  0  0  0
    6.3569   13.5546    2.4314 C   0  0  0  0  0  0  0  0  0  0  0  0
    7.6205   13.5666    3.1979 C   0  0  0  0  0  0  0  0  0  0  0  0
    8.2116   12.5768    3.8248 C   0  0  0  0  0  0  0  0  0  0  0  0
    7.9092   11.1613    4.0221 C   0  0  0  0  0  0  0  0  0  0  0  0
  1  2  2  0
  2  3  1  0
  3  4  2  0
  4  5  1  0
  5  6  2  0
  6  7  1  0
  7  8  2  0
  8  9  1  0
  9 10  2  0
 10 11  1  0
 11 12  2  0
 12 13  1  0
 13 14  2  0
 14 15  1  0
 14 16  1  0
 16 17  2  0
 10 18  1  0
 18 19  1  6
 19 20  1  0
 20 21  1  0
 21 22  2  0
 22 23  1  0
 23 24  1  0
 24 25  1  0
 25 26  2  0
 26 27  1  0
 18  2  1  0
  8  3  1  0
 17 11  1  0
 27 21  1  0
M  END
>  <docking_score>  (3) 
-4.4969999999999999

$$$$
