
     RDKit          3D

 10  9  0  0  0  0  0  0  0  0999 V2000
   20.6690    8.8226   -1.3960 C   0  0  0  0  0  0  0  0  0  0  0  0
   19.6554    8.7646   -2.2084 C   0  0  0  0  0  0  0  0  0  0  0  0
   18.8836    7.5593   -2.4764 C   0  0  0  0  0  0  0  0  0  0  0  0
   19.2216    6.8263   -3.5170 C   0  0  0  0  0  0  0  0  0  0  0  0
   19.8140    6.3115   -4.5891 C   0  0  0  0  0  0  0  0  0  0  0  0
   19.2943    6.7405   -5.8454 C   0  0  0  0  0  0  0  0  0  0  0  0
   18.4668    6.0995   -6.6222 C   0  0  0  0  0  0  0  0  0  0  0  0
   17.9003    4.7672   -6.3283 C   0  0  0  0  0  0  0  0  0  0  0  0
   20.9115    5.3862   -4.3489 C   0  0  0  0  0  0  0  0  0  0  0  0
   21.2382    4.6365   -5.4501 F   0  0  0  0  0  0  0  0  0  0  0  0
  1  2  2  0
  2  3  1  0
  3  4  2  0
  4  5  2  0
  5  6  1  0
  6  7  2  3
  7  8  1  0
  5  9  1  0
  9 10  1  0
M  END
>  <docking_score>  (1) 
-4.2140000000000004

$$$$

     RDKit          3D

 10  9  0  0  0  0  0  0  0  0999 V2000
   21.3825    4.1793   -3.9649 C   0  0  0  0  0  0  0  0  0  0  0  0
   21.1654    5.1356   -3.1111 C   0  0  0  0  0  0  0  0  0  0  0  0
   20.8232    6.5030   -3.4763 C   0  0  0  0  0  0  0  0  0  0  0  0
   19.7104    6.7034   -4.1515 C   0  0  0  0  0  0  0  0  0  0  0  0
   18.5498    6.5733   -4.7850 C   0  0  0  0  0  0  0  0  0  0  0  0
   18.6360    6.3798   -6.1947 C   0  0  0  0  0  0  0  0  0  0  0  0
   18.3829    5.2895   -6.8627 C   0  0  0  0  0  0  0  0  0  0  0  0
   17.9464    4.0152   -6.2560 C   0  0  0  0  0  0  0  0  0  0  0  0
   17.3474    6.6398   -3.9675 C   0  0  0  0  0  0  0  0  0  0  0  0
   17.5643    7.1896   -2.7297 F   0  0  0  0  0  0  0  0  0  0  0  0
  1  2  2  0
  2  3  1  0
  3  4  2  0
  4  5  2  0
  5  6  1  0
  6  7  2  3
  7  8  1  0
  5  9  1  0
  9 10  1  0
M  END
>  <docking_score>  (2) 
-3.7040000000000002

$$$$

     RDKit          3D

 10  9  0  0  0  0  0  0  0  0999 V2000
   18.3509   -3.4275   -2.0958 C   0  0  0  0  0  0  0  0  0  0  0  0
   17.9157   -2.2028   -2.1340 C   0  0  0  0  0  0  0  0  0  0  0  0
   16.5085   -1.8303   -2.1724 C   0  0  0  0  0  0  0  0  0  0  0  0
   15.8615   -1.9718   -3.3106 C   0  0  0  0  0  0  0  0  0  0  0  0
   15.5017   -2.2497   -4.5591 C   0  0  0  0  0  0  0  0  0  0  0  0
   15.6522   -1.1849   -5.4949 C   0  0  0  0  0  0  0  0  0  0  0  0
   14.8125   -0.2181   -5.7383 C   0  0  0  0  0  0  0  0  0  0  0  0
   13.5093   -0.0480   -5.0637 C   0  0  0  0  0  0  0  0  0  0  0  0
   15.0076   -3.5950   -4.8132 C   0  0  0  0  0  0  0  0  0  0  0  0
   16.0057   -4.5327   -4.8895 F   0  0  0  0  0  0  0  0  0  0  0  0
  1  2  2  0
  2  3  1  0
  3  4  2  0
  4  5  2  0
  5  6  1  0
  6  7  2  3
  7  8  1  0
  5  9  1  0
  9 10  1  0
M  END
>  <docking_score>  (3) 
-3.6030000000000002

$$$$
