
     RDKit          3D

 27 29  0  0  0  0  0  0  0  0999 V2000
    5.1986   13.5072    6.1862 O   0  0  0  0  0  0  0  0  0  0  0  0
    4.4726   12.4652    6.2069 C   0  0  0  0  0  0  0  0  0  0  0  0
    3.9514   12.0830    7.4738 N   0  0  0  0  0  0  0  0  0  0  0  0
    4.2621   12.8661    8.6187 C   0  0  0  0  0  0  0  0  0  0  0  0
    3.2852   13.1866    9.5535 C   0  0  0  0  0  0  0  0  0  0  0  0
    3.5476   13.9431   10.6755 C   0  0  0  0  0  0  0  0  0  0  0  0
    2.2847   14.3148   11.8147 Cl  0  0  0  0  0  0  0  0  0  0  0  0
    4.8339   14.3991   10.8755 C   0  0  0  0  0  0  0  0  0  0  0  0
    5.8381   14.1070    9.9755 C   0  0  0  0  0  0  0  0  0  0  0  0
    7.4706   14.6900   10.2362 Cl  0  0  0  0  0  0  0  0  0  0  0  0
    5.5240   13.3428    8.8627 C   0  0  0  0  0  0  0  0  0  0  0  0
    4.2194   11.7520    5.0171 N   0  0  0  0  0  0  0  0  0  0  0  0
    2.9638   11.8472    4.3588 C   0  0  0  0  0  0  0  0  0  0  0  0
    2.5825   10.5748    3.7233 C   0  0  0  0  0  0  0  0  0  0  0  0
    3.3957    9.3708    4.2344 C   0  0  0  0  0  0  0  0  0  0  0  0
    2.7017    7.7728    4.3833 S   0  0  0  0  0  0  0  0  0  0  0  0
    4.6721    6.8808    5.1697 S   0  0  0  0  0  0  0  0  0  0  0  0
    5.4846    8.4159    5.0702 C   0  0  0  0  0  0  0  0  0  0  0  0
    4.5879    9.5005    4.5612 C   0  0  0  0  0  0  0  0  0  0  0  0
    5.2468   10.9137    4.4584 C   0  0  1  0  0  0  0  0  0  0  0  0
    5.4779   11.2307    3.1001 N   0  0  0  0  0  0  0  0  0  0  0  0
    6.5570   11.6615    2.6343 C   0  0  0  0  0  0  0  0  0  0  0  0
    7.7684   11.9249    3.3450 C   0  0  0  0  0  0  0  0  0  0  0  0
    8.1450   13.1598    3.6061 C   0  0  0  0  0  0  0  0  0  0  0  0
    7.3757   14.3058    3.2007 C   0  0  0  0  0  0  0  0  0  0  0  0
    7.8663   15.1824    2.3542 C   0  0  0  0  0  0  0  0  0  0  0  0
    9.4578   14.9504    1.7226 Cl  0  0  0  0  0  0  0  0  0  0  0  0
  1  2  2  0
  2  3  1  0
  3  4  1  0
  4  5  2  0
  5  6  1  0
  6  7  1  0
  6  8  2  0
  8  9  1  0
  9 10  1  0
  9 11  2  0
  2 12  1  0
 12 13  1  0
 13 14  1  0
 14 15  1  0
 15 16  1  0
 16 17  1  0
 17 18  2  0
 18 19  1  0
 19 20  1  0
 20 21  1  0
 21 22  2  3
 22 23  1  0
 23 24  2  3
 24 25  1  0
 25 26  2  3
 26 27  1  0
 11  4  1  0
 20 12  1  6
 15 19  2  0
M  END
>  <docking_score>  (1) 
-3.5209999999999999

$$$$

     RDKit          3D

 27 29  0  0  0  0  0  0  0  0999 V2000
    6.6700   11.0128   12.9376 O   0  0  0  0  0  0  0  0  0  0  0  0
    6.1728   12.1766   13.0447 C   0  0  0  0  0  0  0  0  0  0  0  0
    4.8295   12.2501   13.5060 N   0  0  0  0  0  0  0  0  0  0  0  0
    4.1333   11.0498   13.8145 C   0  0  0  0  0  0  0  0  0  0  0  0
    3.9606   10.6404   15.1310 C   0  0  0  0  0  0  0  0  0  0  0  0
    3.2918    9.4837   15.4697 C   0  0  0  0  0  0  0  0  0  0  0  0
    3.1046    9.0184   17.1369 Cl  0  0  0  0  0  0  0  0  0  0  0  0
    2.7740    8.7027   14.4575 C   0  0  0  0  0  0  0  0  0  0  0  0
    2.9198    9.0674   13.1349 C   0  0  0  0  0  0  0  0  0  0  0  0
    2.2590    8.0699   11.8538 Cl  0  0  0  0  0  0  0  0  0  0  0  0
    3.6004   10.2396   12.8456 C   0  0  0  0  0  0  0  0  0  0  0  0
    6.9424   13.3111   12.7145 N   0  0  0  0  0  0  0  0  0  0  0  0
    8.0979   13.1996   11.8950 C   0  0  0  0  0  0  0  0  0  0  0  0
    9.1435   14.1573   12.2921 C   0  0  0  0  0  0  0  0  0  0  0  0
    8.9213   14.7555   13.6939 C   0  0  0  0  0  0  0  0  0  0  0  0
   10.2501   15.1657   14.7537 S   0  0  0  0  0  0  0  0  0  0  0  0
    8.8331   15.9052   16.4095 S   0  0  0  0  0  0  0  0  0  0  0  0
    7.4230   15.5426   15.4573 C   0  0  0  0  0  0  0  0  0  0  0  0
    7.7734   14.9679   14.1206 C   0  0  0  0  0  0  0  0  0  0  0  0
    6.5541   14.6036   13.2139 C   0  0  1  0  0  0  0  0  0  0  0  0
    6.4481   15.5431   12.1627 N   0  0  0  0  0  0  0  0  0  0  0  0
    5.4171   15.7521   11.4843 C   0  0  0  0  0  0  0  0  0  0  0  0
    4.1470   15.1095   11.6106 C   0  0  0  0  0  0  0  0  0  0  0  0
    3.5969   14.4904   10.5864 C   0  0  0  0  0  0  0  0  0  0  0  0
    4.2267   14.4207    9.2948 C   0  0  0  0  0  0  0  0  0  0  0  0
    4.7353   13.2933    8.8523 C   0  0  0  0  0  0  0  0  0  0  0  0
    4.6437   11.8781    9.8396 Cl  0  0  0  0  0  0  0  0  0  0  0  0
  1  2  2  0
  2  3  1  0
  3  4  1  0
  4  5  2  0
  5  6  1  0
  6  7  1  0
  6  8  2  0
  8  9  1  0
  9 10  1  0
  9 11  2  0
  2 12  1  0
 12 13  1  0
 13 14  1  0
 14 15  1  0
 15 16  1  0
 16 17  1  0
 17 18  2  0
 18 19  1  0
 19 20  1  0
 20 21  1  0
 21 22  2  3
 22 23  1  0
 23 24  2  3
 24 25  1  0
 25 26  2  3
 26 27  1  0
 11  4  1  0
 20 12  1  6
 15 19  2  0
M  END
>  <docking_score>  (2) 
-3.391

$$$$
