
     RDKit          3D

 26 26  0  0  0  0  0  0  0  0999 V2000
   17.3841   -6.5082   -7.2952 C   0  0  0  0  0  0  0  0  0  0  0  0
   18.4351   -6.4435   -6.2294 C   0  0  0  0  0  3  0  0  0  0  0  0
   17.9157   -6.9932   -4.8954 C   0  0  1  0  0  0  0  0  0  0  0  0
   16.4078   -7.0846   -5.0266 C   0  0  0  0  0  0  0  0  0  0  0  0
   18.3920   -8.2919   -4.7284 O   0  0  0  0  0  0  0  0  0  0  0  0
   19.6430   -8.3210   -4.1400 C   0  0  0  0  0  0  0  0  0  0  0  0
   20.5677   -7.5225   -4.7743 O   0  0  0  0  0  0  0  0  0  0  0  0
   20.5174   -6.2589   -4.4622 O   0  0  0  0  0  0  0  0  0  0  0  0
   19.6817   -5.9504   -3.4211 C   0  0  1  0  0  0  0  0  0  0  0  0
   19.9646   -4.6767   -2.9589 O   0  0  0  0  0  0  0  0  0  0  0  0
   18.2475   -6.0940   -3.7625 C   0  0  1  0  0  0  0  0  0  0  0  0
   17.5844   -4.8384   -3.8885 N   0  0  0  0  0  0  0  0  0  0  0  0
   16.6757   -4.6626   -2.7896 C   0  0  0  0  0  3  0  0  0  0  0  0
   16.9662   -3.4754   -1.9283 C   0  0  0  0  0  0  0  0  0  0  0  0
   16.4027   -2.2582   -2.6400 C   0  0  0  0  0  0  0  0  0  0  0  0
   17.4695   -1.7179   -3.3952 O   0  0  0  0  0  0  0  0  0  0  0  0
   15.9290   -1.3417   -1.7402 O   0  0  0  0  0  0  0  0  0  0  0  0
   15.3802   -2.6414   -3.5291 O   0  0  0  0  0  0  0  0  0  0  0  0
   15.4185   -1.7478   -4.6227 C   0  0  2  0  0  0  0  0  0  0  0  0
   14.5737   -0.6484   -4.3594 O   0  0  0  0  0  0  0  0  0  0  0  0
   14.7771   -2.4994   -5.7891 C   0  0  2  0  0  0  0  0  0  0  0  0
   14.6558   -3.8619   -5.4861 O   0  0  0  0  0  0  0  0  0  0  0  0
   15.7157   -2.4027   -6.9964 C   0  0  0  0  0  3  0  0  0  0  0  0
   17.0391   -1.8524   -6.5230 C   0  0  0  0  0  3  0  0  0  0  0  0
   18.0463   -2.8097   -6.7620 O   0  0  0  0  0  0  0  0  0  0  0  0
   18.0507   -3.0611   -8.0678 O   0  0  0  0  0  0  0  0  0  0  0  0
  1  2  1  0
  2  3  1  0
  3  4  1  6
  3  5  1  0
  5  6  1  0
  6  7  1  0
  7  8  1  0
  8  9  1  0
  9 10  1  6
  9 11  1  0
 11 12  1  6
 12 13  1  0
 13 14  1  0
 14 15  1  0
 15 16  1  0
 15 17  1  0
 15 18  1  0
 18 19  1  0
 19 20  1  1
 19 21  1  0
 21 22  1  1
 21 23  1  0
 23 24  1  0
 24 25  1  0
 25 26  1  0
 11  3  1  0
M  RAD  4   2   2  13   2  23   2  24   2
M  END
>  <docking_score>  (1) 
-4.0490000000000004

$$$$

     RDKit          3D

 26 26  0  0  0  0  0  0  0  0999 V2000
   20.9607   -3.9966   -4.9503 C   0  0  0  0  0  0  0  0  0  0  0  0
   20.4387   -3.1377   -3.8392 C   0  0  0  0  0  3  0  0  0  0  0  0
   19.7084   -3.9726   -2.7805 C   0  0  1  0  0  0  0  0  0  0  0  0
   19.7270   -5.4056   -3.2760 C   0  0  0  0  0  0  0  0  0  0  0  0
   20.4424   -3.9388   -1.5966 O   0  0  0  0  0  0  0  0  0  0  0  0
   20.1235   -2.8459   -0.8118 C   0  0  0  0  0  0  0  0  0  0  0  0
   20.1953   -1.6466   -1.4840 O   0  0  0  0  0  0  0  0  0  0  0  0
   19.1538   -1.3532   -2.2090 O   0  0  0  0  0  0  0  0  0  0  0  0
   18.0791   -2.1876   -2.0468 C   0  0  1  0  0  0  0  0  0  0  0  0
   16.9464   -1.5967   -2.5797 O   0  0  0  0  0  0  0  0  0  0  0  0
   18.2994   -3.5387   -2.6124 C   0  0  1  0  0  0  0  0  0  0  0  0
   17.5436   -3.7673   -3.7992 N   0  0  0  0  0  0  0  0  0  0  0  0
   16.2476   -4.2811   -3.4521 C   0  0  0  0  0  3  0  0  0  0  0  0
   16.1159   -5.7656   -3.5734 C   0  0  0  0  0  0  0  0  0  0  0  0
   15.2741   -6.0403   -4.8068 C   0  0  0  0  0  0  0  0  0  0  0  0
   14.6705   -4.8084   -5.1510 O   0  0  0  0  0  0  0  0  0  0  0  0
   14.3253   -6.9929   -4.5486 O   0  0  0  0  0  0  0  0  0  0  0  0
   16.0934   -6.4466   -5.8775 O   0  0  0  0  0  0  0  0  0  0  0  0
   16.0223   -5.4395   -6.8658 C   0  0  2  0  0  0  0  0  0  0  0  0
   15.3730   -5.9505   -8.0098 O   0  0  0  0  0  0  0  0  0  0  0  0
   17.4679   -5.1755   -7.2871 C   0  0  2  0  0  0  0  0  0  0  0  0
   17.6212   -5.3788   -8.6648 O   0  0  0  0  0  0  0  0  0  0  0  0
   18.3659   -6.2040   -6.5916 C   0  0  0  0  0  3  0  0  0  0  0  0
   18.9799   -7.0874   -7.6503 C   0  0  0  0  0  3  0  0  0  0  0  0
   18.4917   -8.4006   -7.4923 O   0  0  0  0  0  0  0  0  0  0  0  0
   18.5398   -8.9864   -8.6851 O   0  0  0  0  0  0  0  0  0  0  0  0
  1  2  1  0
  2  3  1  0
  3  4  1  6
  3  5  1  0
  5  6  1  0
  6  7  1  0
  7  8  1  0
  8  9  1  0
  9 10  1  6
  9 11  1  0
 11 12  1  6
 12 13  1  0
 13 14  1  0
 14 15  1  0
 15 16  1  0
 15 17  1  0
 15 18  1  0
 18 19  1  0
 19 20  1  6
 19 21  1  0
 21 22  1  6
 21 23  1  0
 23 24  1  0
 24 25  1  0
 25 26  1  0
 11  3  1  0
M  RAD  4   2   2  13   2  23   2  24   2
M  END
>  <docking_score>  (2) 
-3.5600000000000001

$$$$

     RDKit          3D

 26 26  0  0  0  0  0  0  0  0999 V2000
   21.2677   -5.5436   -2.6707 C   0  0  0  0  0  0  0  0  0  0  0  0
   20.4733   -4.3005   -2.9327 C   0  0  0  0  0  3  0  0  0  0  0  0
   18.9700   -4.5976   -2.9917 C   0  0  1  0  0  0  0  0  0  0  0  0
   18.8233   -6.0999   -2.8477 C   0  0  0  0  0  0  0  0  0  0  0  0
   18.3535   -4.0176   -1.8849 O   0  0  0  0  0  0  0  0  0  0  0  0
   18.0014   -2.6996   -2.1104 C   0  0  0  0  0  0  0  0  0  0  0  0
   19.0407   -1.9241   -2.5725 O   0  0  0  0  0  0  0  0  0  0  0  0
   19.2766   -2.0160   -3.8501 O   0  0  0  0  0  0  0  0  0  0  0  0
   18.3444   -2.7224   -4.5639 C   0  0  1  0  0  0  0  0  0  0  0  0
   18.4999   -2.4652   -5.9151 O   0  0  0  0  0  0  0  0  0  0  0  0
   18.3758   -4.1767   -4.2846 C   0  0  1  0  0  0  0  0  0  0  0  0
   18.9095   -4.9329   -5.3687 N   0  0  0  0  0  0  0  0  0  0  0  0
   18.0856   -6.0868   -5.6013 C   0  0  0  0  0  3  0  0  0  0  0  0
   16.6298   -5.7870   -5.7642 C   0  0  0  0  0  0  0  0  0  0  0  0
   16.3742   -5.6063   -7.2499 C   0  0  0  0  0  0  0  0  0  0  0  0
   15.0468   -6.0401   -7.4741 O   0  0  0  0  0  0  0  0  0  0  0  0
   17.2594   -6.3420   -7.9911 O   0  0  0  0  0  0  0  0  0  0  0  0
   16.4601   -4.2448   -7.5989 O   0  0  0  0  0  0  0  0  0  0  0  0
   15.1630   -3.6982   -7.4786 C   0  0  2  0  0  0  0  0  0  0  0  0
   14.9524   -2.7592   -8.5108 O   0  0  0  0  0  0  0  0  0  0  0  0
   15.1753   -2.8953   -6.1777 C   0  0  2  0  0  0  0  0  0  0  0  0
   14.0853   -3.2511   -5.3725 O   0  0  0  0  0  0  0  0  0  0  0  0
   14.9953   -1.4141   -6.5263 C   0  0  0  0  0  3  0  0  0  0  0  0
   14.9782   -0.6249   -5.2398 C   0  0  0  0  0  3  0  0  0  0  0  0
   13.8611    0.2353   -5.2437 O   0  0  0  0  0  0  0  0  0  0  0  0
   13.6227    0.5792   -3.9815 O   0  0  0  0  0  0  0  0  0  0  0  0
  1  2  1  0
  2  3  1  0
  3  4  1  1
  3  5  1  0
  5  6  1  0
  6  7  1  0
  7  8  1  0
  8  9  1  0
  9 10  1  6
  9 11  1  0
 11 12  1  6
 12 13  1  0
 13 14  1  0
 14 15  1  0
 15 16  1  0
 15 17  1  0
 15 18  1  0
 18 19  1  0
 19 20  1  6
 19 21  1  0
 21 22  1  1
 21 23  1  0
 23 24  1  0
 24 25  1  0
 25 26  1  0
 11  3  1  0
M  RAD  4   2   2  13   2  23   2  24   2
M  END
>  <docking_score>  (3) 
-3.5470000000000002

$$$$
