
     RDKit          3D

 16 18  0  0  0  0  0  0  0  0999 V2000
   15.7631   -6.1022   -4.3507 C   0  0  0  0  0  0  0  0  0  0  0  0
   15.2931   -5.0943   -5.2572 O   0  0  0  0  0  0  0  0  0  0  0  0
   15.1732   -3.7639   -4.8176 C   0  0  0  0  0  0  0  0  0  0  0  0
   14.1815   -2.9373   -5.2920 C   0  0  0  0  0  0  0  0  0  0  0  0
   14.0965   -1.6257   -4.8290 C   0  0  0  0  0  0  0  0  0  0  0  0
   15.0193   -1.2186   -3.9102 C   0  0  0  0  0  0  0  0  0  0  0  0
   16.0266   -2.0478   -3.4243 C   0  0  0  0  0  0  0  0  0  0  0  0
   16.0754   -3.3243   -3.9031 C   0  0  0  0  0  0  0  0  0  0  0  0
   16.9800   -1.6087   -2.4548 N   0  0  0  0  0  0  0  0  0  0  0  0
   18.1999   -2.2351   -2.1503 C   0  0  0  0  0  0  0  0  0  0  0  0
   19.3311   -1.2887   -1.7740 C   0  0  0  0  0  0  0  0  0  0  0  0
   18.4457   -3.4492   -2.1526 C   0  0  0  0  0  0  0  0  0  0  0  0
   18.0803   -4.7736   -2.3323 C   0  0  1  0  0  0  0  0  0  0  0  0
   16.7763   -5.2239   -2.1785 O   0  0  0  0  0  0  0  0  0  0  0  0
   18.0554   -5.3474   -3.7047 C   0  0  0  0  0  0  0  0  0  0  0  0
   16.7973   -5.6007   -3.5019 C   0  0  0  0  0  0  0  0  0  0  0  0
  1  2  1  0
  2  3  1  0
  3  4  2  0
  4  5  1  0
  5  6  2  0
  6  7  1  0
  7  8  2  0
  7  9  1  0
  9 10  1  0
 10 11  1  0
 10 12  2  3
 12 13  1  0
 13 14  1  6
 13 15  1  0
 15 16  2  0
 16  1  1  0
  8  3  1  0
 16 14  1  0
M  END
>  <docking_score>  (1) 
-5.5679999999999996

$$$$

     RDKit          3D

 16 18  0  0  0  0  0  0  0  0999 V2000
   13.9057   -4.3964   -5.7366 C   0  0  0  0  0  0  0  0  0  0  0  0
   14.5037   -3.1431   -5.3759 O   0  0  0  0  0  0  0  0  0  0  0  0
   15.4005   -3.0853   -4.2942 C   0  0  0  0  0  0  0  0  0  0  0  0
   15.4791   -1.9760   -3.4848 C   0  0  0  0  0  0  0  0  0  0  0  0
   16.3802   -1.9600   -2.4220 C   0  0  0  0  0  0  0  0  0  0  0  0
   17.1549   -3.0672   -2.2333 C   0  0  0  0  0  0  0  0  0  0  0  0
   17.0826   -4.1945   -3.0472 C   0  0  0  0  0  0  0  0  0  0  0  0
   16.1880   -4.1698   -4.0768 C   0  0  0  0  0  0  0  0  0  0  0  0
   17.8947   -5.3499   -2.8305 N   0  0  0  0  0  0  0  0  0  0  0  0
   18.1341   -6.3792   -3.7558 C   0  0  0  0  0  0  0  0  0  0  0  0
   19.5228   -6.9982   -3.6826 C   0  0  0  0  0  0  0  0  0  0  0  0
   17.3509   -6.8284   -4.6039 C   0  0  0  0  0  0  0  0  0  0  0  0
   16.1236   -6.8559   -5.2464 C   0  0  1  0  0  0  0  0  0  0  0  0
   14.9436   -6.4529   -4.6365 O   0  0  0  0  0  0  0  0  0  0  0  0
   15.8370   -5.8692   -6.3223 C   0  0  0  0  0  0  0  0  0  0  0  0
   14.8315   -5.4760   -5.5994 C   0  0  0  0  0  0  0  0  0  0  0  0
  1  2  1  0
  2  3  1  0
  3  4  2  0
  4  5  1  0
  5  6  2  0
  6  7  1  0
  7  8  2  0
  7  9  1  0
  9 10  1  0
 10 11  1  0
 10 12  2  3
 12 13  1  0
 13 14  1  1
 13 15  1  0
 15 16  2  0
 16  1  1  0
  8  3  1  0
 16 14  1  0
M  END
>  <docking_score>  (2) 
-5.4470000000000001

$$$$

     RDKit          3D

 16 18  0  0  0  0  0  0  0  0999 V2000
   16.5170   -1.9210   -2.1462 C   0  0  0  0  0  0  0  0  0  0  0  0
   15.5093   -1.5805   -3.1091 O   0  0  0  0  0  0  0  0  0  0  0  0
   15.6112   -2.0662   -4.4249 C   0  0  0  0  0  0  0  0  0  0  0  0
   15.1708   -1.3287   -5.4990 C   0  0  0  0  0  0  0  0  0  0  0  0
   15.2919   -1.8460   -6.7873 C   0  0  0  0  0  0  0  0  0  0  0  0
   15.8524   -3.0826   -6.9218 C   0  0  0  0  0  0  0  0  0  0  0  0
   16.3009   -3.8367   -5.8408 C   0  0  0  0  0  0  0  0  0  0  0  0
   16.1638   -3.2946   -4.5964 C   0  0  0  0  0  0  0  0  0  0  0  0
   16.8942   -5.1268   -5.9995 N   0  0  0  0  0  0  0  0  0  0  0  0
   17.0738   -6.0856   -4.9888 C   0  0  0  0  0  0  0  0  0  0  0  0
   16.9404   -7.5318   -5.4448 C   0  0  0  0  0  0  0  0  0  0  0  0
   17.3268   -5.8832   -3.7932 C   0  0  0  0  0  0  0  0  0  0  0  0
   17.5741   -5.0459   -2.7172 C   0  0  1  0  0  0  0  0  0  0  0  0
   18.1185   -3.7768   -2.8585 O   0  0  0  0  0  0  0  0  0  0  0  0
   16.4326   -4.4138   -2.0026 C   0  0  0  0  0  0  0  0  0  0  0  0
   16.9630   -3.2685   -2.3106 C   0  0  0  0  0  0  0  0  0  0  0  0
  1  2  1  0
  2  3  1  0
  3  4  2  0
  4  5  1  0
  5  6  2  0
  6  7  1  0
  7  8  2  0
  7  9  1  0
  9 10  1  0
 10 11  1  0
 10 12  2  3
 12 13  1  0
 13 14  1  6
 13 15  1  0
 15 16  2  0
 16  1  1  0
  8  3  1  0
 16 14  1  0
M  END
>  <docking_score>  (3) 
-5.4089999999999998

$$$$
