
     RDKit          3D

 25 26  0  0  0  0  0  0  0  0999 V2000
    2.3806    8.4135    5.0112 C   0  0  0  0  0  0  0  0  0  0  0  0
    2.9718    9.3210    3.9785 C   0  0  1  0  0  0  0  0  0  0  0  0
    3.2421   10.6657    4.5801 C   0  0  0  0  0  0  0  0  0  0  0  0
    3.9132   11.6065    3.6328 C   0  0  2  0  0  0  0  0  0  0  0  0
    3.0614   12.2087    2.7372 O   0  0  0  0  0  0  0  0  0  0  0  0
    5.1095   10.9568    2.9825 C   0  0  2  0  0  0  0  0  0  0  0  0
    5.7399   11.8604    2.1371 O   0  0  0  0  0  0  0  0  0  0  0  0
    4.6160    9.7330    2.2333 C   0  0  1  0  0  0  0  0  0  0  0  0
    5.5624    9.2172    1.3686 O   0  0  0  0  0  0  0  0  0  0  0  0
    4.1800    8.7295    3.2867 C   0  0  1  0  0  0  0  0  0  0  0  0
    5.2986    8.5612    4.2025 N   0  0  0  0  0  0  0  0  0  0  0  0
    5.4459    9.6564    5.1161 C   0  0  0  0  0  3  0  0  0  0  0  0
    6.8617   10.0433    5.3941 C   0  0  0  0  0  0  0  0  0  0  0  0
    7.2204   11.4287    4.9649 C   0  0  0  0  0  3  0  0  0  0  0  0
    6.4404   12.4179    5.5111 O   0  0  0  0  0  0  0  0  0  0  0  0
    7.4956   11.5729    3.5725 N   0  0  0  0  0  0  0  0  0  0  0  0
    6.6721   12.5600    2.9130 C   0  0  1  0  0  0  0  0  0  0  0  0
    7.5529   13.3153    1.9101 C   0  0  1  0  0  0  0  0  0  0  0  0
    6.7843   13.5285    0.7680 O   0  0  0  0  0  0  0  0  0  0  0  0
    8.0247   14.6282    2.4725 C   0  0  2  0  0  0  0  0  0  0  0  0
    7.7408   15.6385    1.5353 O   0  0  0  0  0  0  0  0  0  0  0  0
    9.5145   14.6267    2.7135 C   0  0  0  0  0  3  0  0  0  0  0  0
    9.7836   14.2262    4.1329 C   0  0  0  0  0  0  0  0  0  0  0  0
   10.8435   15.0978    4.7779 C   0  0  0  0  0  3  0  0  0  0  0  0
   10.5694   15.1490    6.1389 O   0  0  0  0  0  0  0  0  0  0  0  0
  2  1  1  1
  2  3  1  0
  3  4  1  0
  4  5  1  6
  4  6  1  0
  6  7  1  6
  6  8  1  0
  8  9  1  1
  8 10  1  0
 10 11  1  1
 11 12  1  0
 12 13  1  0
 13 14  1  0
 14 15  1  0
 14 16  1  0
 17 16  1  6
 17 18  1  0
 18 19  1  6
 18 20  1  0
 20 21  1  6
 20 22  1  0
 22 23  1  0
 23 24  1  0
 24 25  1  0
 10  2  1  0
 17  7  1  0
M  RAD  4  12   2  14   2  22   2  24   2
M  END
>  <docking_score>  (1) 
-4.6440000000000001

$$$$

     RDKit          3D

 25 26  0  0  0  0  0  0  0  0999 V2000
   14.0957   -0.1020   -4.8290 C   0  0  0  0  0  0  0  0  0  0  0  0
   14.5618   -1.2842   -5.6193 C   0  0  1  0  0  0  0  0  0  0  0  0
   15.9446   -1.0343   -6.1378 C   0  0  0  0  0  0  0  0  0  0  0  0
   16.5162   -2.2057   -6.8686 C   0  0  2  0  0  0  0  0  0  0  0  0
   16.0809   -2.3280   -8.1670 O   0  0  0  0  0  0  0  0  0  0  0  0
   16.3667   -3.4716   -6.0616 C   0  0  2  0  0  0  0  0  0  0  0  0
   16.9388   -4.5388   -6.7415 O   0  0  0  0  0  0  0  0  0  0  0  0
   14.8847   -3.6874   -5.8174 C   0  0  1  0  0  0  0  0  0  0  0  0
   14.5998   -4.9521   -5.3390 O   0  0  0  0  0  0  0  0  0  0  0  0
   14.4404   -2.5902   -4.8658 C   0  0  1  0  0  0  0  0  0  0  0  0
   15.3329   -2.6364   -3.7171 N   0  0  0  0  0  0  0  0  0  0  0  0
   16.6213   -2.0664   -3.9838 C   0  0  0  0  0  3  0  0  0  0  0  0
   17.7626   -2.7979   -3.3565 C   0  0  0  0  0  0  0  0  0  0  0  0
   18.7337   -3.3818   -4.3303 C   0  0  0  0  0  3  0  0  0  0  0  0
   19.2920   -2.4746   -5.1967 O   0  0  0  0  0  0  0  0  0  0  0  0
   18.3221   -4.6124   -4.9231 N   0  0  0  0  0  0  0  0  0  0  0  0
   18.2872   -4.5828   -6.3672 C   0  0  1  0  0  0  0  0  0  0  0  0
   18.8092   -5.9309   -6.8795 C   0  0  1  0  0  0  0  0  0  0  0  0
   20.1345   -5.7388   -7.2633 O   0  0  0  0  0  0  0  0  0  0  0  0
   18.7235   -6.9929   -5.8177 C   0  0  2  0  0  0  0  0  0  0  0  0
   19.8511   -7.8264   -5.9338 O   0  0  0  0  0  0  0  0  0  0  0  0
   17.4943   -7.8518   -5.9883 C   0  0  0  0  0  3  0  0  0  0  0  0
   17.7675   -9.2181   -5.4348 C   0  0  0  0  0  0  0  0  0  0  0  0
   16.5675  -10.1354   -5.5686 C   0  0  0  0  0  3  0  0  0  0  0  0
   16.8877  -11.1059   -6.5098 O   0  0  0  0  0  0  0  0  0  0  0  0
  2  1  1  1
  2  3  1  0
  3  4  1  0
  4  5  1  6
  4  6  1  0
  6  7  1  6
  6  8  1  0
  8  9  1  1
  8 10  1  0
 10 11  1  1
 11 12  1  0
 12 13  1  0
 13 14  1  0
 14 15  1  0
 14 16  1  0
 17 16  1  1
 17 18  1  0
 18 19  1  1
 18 20  1  0
 20 21  1  6
 20 22  1  0
 22 23  1  0
 23 24  1  0
 24 25  1  0
 10  2  1  0
 17  7  1  0
M  RAD  4  12   2  14   2  22   2  24   2
M  END
>  <docking_score>  (2) 
-4.6139999999999999

$$$$

     RDKit          3D

 25 26  0  0  0  0  0  0  0  0999 V2000
   15.3009    0.2382   -5.7284 C   0  0  0  0  0  0  0  0  0  0  0  0
   15.5281   -1.2048   -6.0533 C   0  0  1  0  0  0  0  0  0  0  0  0
   16.9747   -1.5449   -5.8670 C   0  0  0  0  0  0  0  0  0  0  0  0
   17.2690   -2.9928   -6.0907 C   0  0  2  0  0  0  0  0  0  0  0  0
   17.3844   -3.3473   -7.4140 O   0  0  0  0  0  0  0  0  0  0  0  0
   16.3133   -3.8649   -5.3147 C   0  0  2  0  0  0  0  0  0  0  0  0
   16.6294   -5.2035   -5.5061 O   0  0  0  0  0  0  0  0  0  0  0  0
   14.9090   -3.5430   -5.7911 C   0  0  1  0  0  0  0  0  0  0  0  0
   13.9745   -4.4679   -5.3659 O   0  0  0  0  0  0  0  0  0  0  0  0
   14.6008   -2.1372   -5.3056 C   0  0  1  0  0  0  0  0  0  0  0  0
   14.8543   -2.1170   -3.8726 N   0  0  0  0  0  0  0  0  0  0  0  0
   16.2504   -2.0651   -3.5501 C   0  0  0  0  0  3  0  0  0  0  0  0
   16.6436   -2.8932   -2.3707 C   0  0  0  0  0  0  0  0  0  0  0  0
   17.6002   -3.9980   -2.6813 C   0  0  0  0  0  3  0  0  0  0  0  0
   18.7722   -3.5925   -3.2704 O   0  0  0  0  0  0  0  0  0  0  0  0
   17.0062   -5.1630   -3.2517 N   0  0  0  0  0  0  0  0  0  0  0  0
   17.5706   -5.5425   -4.5265 C   0  0  1  0  0  0  0  0  0  0  0  0
   17.6652   -7.0728   -4.5637 C   0  0  1  0  0  0  0  0  0  0  0  0
   16.7243   -7.5198   -5.4886 O   0  0  0  0  0  0  0  0  0  0  0  0
   19.0426   -7.5290   -4.9605 C   0  0  2  0  0  0  0  0  0  0  0  0
   19.8720   -6.3967   -5.0596 O   0  0  0  0  0  0  0  0  0  0  0  0
   19.0354   -8.2156   -6.3044 C   0  0  0  0  0  3  0  0  0  0  0  0
   19.8761   -7.4284   -7.2642 C   0  0  0  0  0  0  0  0  0  0  0  0
   19.1830   -7.2337   -8.5987 C   0  0  0  0  0  3  0  0  0  0  0  0
   17.9759   -7.9195   -8.5454 O   0  0  0  0  0  0  0  0  0  0  0  0
  2  1  1  1
  2  3  1  0
  3  4  1  0
  4  5  1  6
  4  6  1  0
  6  7  1  6
  6  8  1  0
  8  9  1  1
  8 10  1  0
 10 11  1  1
 11 12  1  0
 12 13  1  0
 13 14  1  0
 14 15  1  0
 14 16  1  0
 17 16  1  1
 17 18  1  0
 18 19  1  6
 18 20  1  0
 20 21  1  6
 20 22  1  0
 22 23  1  0
 23 24  1  0
 24 25  1  0
 10  2  1  0
 17  7  1  0
M  RAD  4  12   2  14   2  22   2  24   2
M  END
>  <docking_score>  (3) 
-4.5419999999999998

$$$$
