
     RDKit          3D

 28 28  0  0  0  0  0  0  0  0999 V2000
   16.5242   -1.9717   -7.2847 C   0  0  0  0  0  0  0  0  0  0  0  0
   15.2731   -1.4858   -6.9739 O   0  0  0  0  0  0  0  0  0  0  0  0
   15.1570   -1.1069   -5.6373 C   0  0  0  0  0  3  0  0  0  0  0  0
   16.1228   -1.7056   -4.8368 O   0  0  0  0  0  0  0  0  0  0  0  0
   15.6915   -1.8817   -3.5224 C   0  0  2  0  0  0  0  0  0  0  0  0
   14.6647   -0.8209   -3.2418 C   0  0  0  0  0  0  0  0  0  0  0  0
   16.8070   -1.8312   -2.6107 C   0  0  0  0  0  3  0  0  0  0  0  0
   17.4942   -2.9226   -2.0134 C   0  0  1  0  0  0  0  0  0  0  0  0
   17.2048   -4.2766   -2.5235 C   0  0  0  0  0  3  0  0  0  0  0  0
   18.4662   -5.0635   -2.7390 C   0  0  0  0  0  0  0  0  0  0  0  0
   18.7078   -5.4449   -4.1618 C   0  0  2  0  0  0  0  0  0  0  0  0
   17.5905   -4.6455   -5.3123 S   0  0  0  0  0  0  0  0  0  0  0  0
   18.8592   -6.7953   -4.3627 O   0  0  0  0  0  0  0  0  0  0  0  0
   20.4963   -7.1037   -4.8455 S   0  0  0  0  0  0  0  0  0  0  0  0
   20.5881   -7.2897   -6.6659 C   0  0  0  0  0  0  0  0  0  0  0  0
   20.1594   -8.7247   -6.9828 C   0  0  0  0  0  0  0  0  0  0  0  0
   19.1003   -8.7493   -8.0686 C   0  0  1  0  0  0  0  0  0  0  0  0
   18.4819  -10.0162   -8.0015 O   0  0  0  0  0  0  0  0  0  0  0  0
   17.8503   -7.4618   -7.7880 S   0  0  0  0  0  0  0  0  0  0  0  0
   17.4291   -7.3315   -6.0488 C   0  0  2  0  0  0  0  0  0  0  0  0
   17.1075   -8.5604   -5.4999 O   0  0  0  0  0  0  0  0  0  0  0  0
   16.2766   -6.0960   -5.7784 S   0  0  2  0  0  0  0  0  0  0  0  0
   15.1915   -5.4811   -6.9530 C   0  0  2  0  0  0  0  0  0  0  0  0
   13.8883   -5.8554   -6.7318 O   0  0  0  0  0  0  0  0  0  0  0  0
   15.6582   -5.7236   -8.2822 N   0  0  0  0  0  0  0  0  0  0  0  0
   18.9587   -2.7860   -1.7327 C   0  0  0  0  0  3  0  0  0  0  0  0
   19.5549   -1.7151   -2.3587 O   0  0  0  0  0  0  0  0  0  0  0  0
   20.5880   -0.8228   -1.3357 S   0  0  0  0  0  0  0  0  0  0  0  0
  1  2  1  0
  2  3  1  0
  3  4  1  0
  4  5  1  0
  5  6  1  1
  5  7  1  0
  8  7  1  6
  8  9  1  0
  9 10  1  0
 11 10  1  1
 11 12  1  0
 11 13  1  0
 13 14  1  0
 14 15  1  0
 15 16  1  0
 16 17  1  0
 17 18  1  1
 17 19  1  0
 19 20  1  0
 20 21  1  6
 20 22  1  0
 22 23  1  0
 23 24  1  0
 23 25  1  6
  8 26  1  0
 26 27  1  0
 27 28  1  0
 22 12  1  6
M  RAD  4   3   2   7   2   9   2  26   2
M  END
>  <docking_score>  (1) 
-4.149

$$$$

     RDKit          3D

 28 28  0  0  0  0  0  0  0  0999 V2000
   21.3731   -1.9163   -5.3408 C   0  0  0  0  0  0  0  0  0  0  0  0
   20.8165   -0.6778   -5.5733 O   0  0  0  0  0  0  0  0  0  0  0  0
   19.4544   -0.7428   -5.8630 C   0  0  0  0  0  3  0  0  0  0  0  0
   19.2159   -1.1156   -7.1806 O   0  0  0  0  0  0  0  0  0  0  0  0
   18.2806   -2.1451   -7.2823 C   0  0  2  0  0  0  0  0  0  0  0  0
   17.9489   -2.3069   -8.7390 C   0  0  0  0  0  0  0  0  0  0  0  0
   17.1204   -1.8587   -6.4759 C   0  0  0  0  0  3  0  0  0  0  0  0
   15.7528   -2.0080   -6.8330 C   0  0  1  0  0  0  0  0  0  0  0  0
   15.1448   -3.3432   -6.6746 C   0  0  0  0  0  3  0  0  0  0  0  0
   14.9067   -3.6700   -5.2278 C   0  0  0  0  0  0  0  0  0  0  0  0
   15.7617   -4.7773   -4.7072 C   0  0  2  0  0  0  0  0  0  0  0  0
   16.6663   -4.3404   -3.2234 S   0  0  0  0  0  0  0  0  0  0  0  0
   16.5169   -5.4027   -5.6692 O   0  0  0  0  0  0  0  0  0  0  0  0
   15.9358   -7.0255   -5.8617 S   0  0  0  0  0  0  0  0  0  0  0  0
   17.0003   -8.1871   -4.9266 C   0  0  0  0  0  0  0  0  0  0  0  0
   18.2281   -8.4576   -5.7999 C   0  0  0  0  0  0  0  0  0  0  0  0
   19.5099   -8.2695   -5.0107 C   0  0  1  0  0  0  0  0  0  0  0  0
   20.5489   -8.1264   -5.9552 O   0  0  0  0  0  0  0  0  0  0  0  0
   19.4288   -6.7730   -3.9846 S   0  0  0  0  0  0  0  0  0  0  0  0
   18.6454   -5.4208   -4.8662 C   0  0  2  0  0  0  0  0  0  0  0  0
   19.2087   -5.2204   -6.1142 O   0  0  0  0  0  0  0  0  0  0  0  0
   18.5377   -4.0202   -3.8892 S   0  0  2  0  0  0  0  0  0  0  0  0
   19.5364   -3.6758   -2.5405 C   0  0  2  0  0  0  0  0  0  0  0  0
   20.7096   -4.3905   -2.5416 O   0  0  0  0  0  0  0  0  0  0  0  0
   18.8072   -3.7392   -1.3127 N   0  0  0  0  0  0  0  0  0  0  0  0
   14.7784   -0.9513   -6.4131 C   0  0  0  0  0  3  0  0  0  0  0  0
   15.0809   -0.3512   -5.2121 O   0  0  0  0  0  0  0  0  0  0  0  0
   13.7046    0.0167   -4.2738 S   0  0  0  0  0  0  0  0  0  0  0  0
  1  2  1  0
  2  3  1  0
  3  4  1  0
  4  5  1  0
  5  6  1  6
  5  7  1  0
  8  7  1  1
  8  9  1  0
  9 10  1  0
 11 10  1  6
 11 12  1  0
 11 13  1  0
 13 14  1  0
 14 15  1  0
 15 16  1  0
 16 17  1  0
 17 18  1  6
 17 19  1  0
 19 20  1  0
 20 21  1  6
 20 22  1  0
 22 23  1  0
 23 24  1  0
 23 25  1  1
  8 26  1  0
 26 27  1  0
 27 28  1  0
 22 12  1  1
M  RAD  4   3   2   7   2   9   2  26   2
M  END
>  <docking_score>  (2) 
-4.0869999999999997

$$$$

     RDKit          3D

 28 28  0  0  0  0  0  0  0  0999 V2000
   20.2569    1.5780   -4.9302 C   0  0  0  0  0  0  0  0  0  0  0  0
   20.4299    0.2327   -5.1715 O   0  0  0  0  0  0  0  0  0  0  0  0
   21.3818   -0.3486   -4.3351 C   0  0  0  0  0  3  0  0  0  0  0  0
   20.8709   -1.4354   -3.6352 O   0  0  0  0  0  0  0  0  0  0  0  0
   19.7007   -1.1221   -2.9443 C   0  0  2  0  0  0  0  0  0  0  0  0
   20.1048   -0.5304   -1.6235 C   0  0  0  0  0  0  0  0  0  0  0  0
   18.8683   -2.2902   -2.7993 C   0  0  0  0  0  3  0  0  0  0  0  0
   19.2220   -3.5481   -2.2399 C   0  0  1  0  0  0  0  0  0  0  0  0
   18.1350   -4.3901   -1.7044 C   0  0  0  0  0  3  0  0  0  0  0  0
   16.8180   -3.6678   -1.7290 C   0  0  0  0  0  0  0  0  0  0  0  0
   16.1062   -3.7484   -3.0386 C   0  0  2  0  0  0  0  0  0  0  0  0
   16.0745   -5.4009   -3.7308 S   0  0  0  0  0  0  0  0  0  0  0  0
   16.4600   -2.7658   -3.9309 O   0  0  0  0  0  0  0  0  0  0  0  0
   15.0981   -1.7191   -4.1714 S   0  0  0  0  0  0  0  0  0  0  0  0
   14.2276   -2.1693   -5.7194 C   0  0  0  0  0  0  0  0  0  0  0  0
   15.0069   -1.5203   -6.8661 C   0  0  0  0  0  0  0  0  0  0  0  0
   15.3078   -2.5284   -7.9590 C   0  0  1  0  0  0  0  0  0  0  0  0
   16.3477   -1.9798   -8.7399 O   0  0  0  0  0  0  0  0  0  0  0  0
   15.8634   -4.1072   -7.2535 S   0  0  0  0  0  0  0  0  0  0  0  0
   16.9714   -3.8463   -5.8665 C   0  0  2  0  0  0  0  0  0  0  0  0
   17.9995   -2.9750   -6.1811 O   0  0  0  0  0  0  0  0  0  0  0  0
   17.4690   -5.3322   -5.1793 S   0  0  2  0  0  0  0  0  0  0  0  0
   17.4785   -6.8423   -5.9884 C   0  0  2  0  0  0  0  0  0  0  0  0
   17.3099   -6.7274   -7.3469 O   0  0  0  0  0  0  0  0  0  0  0  0
   16.6033   -7.7832   -5.3621 N   0  0  0  0  0  0  0  0  0  0  0  0
   20.2209   -4.4015   -2.9584 C   0  0  0  0  0  3  0  0  0  0  0  0
   21.3573   -4.6724   -2.2308 O   0  0  0  0  0  0  0  0  0  0  0  0
   21.3791   -3.9145   -0.7027 S   0  0  0  0  0  0  0  0  0  0  0  0
  1  2  1  0
  2  3  1  0
  3  4  1  0
  4  5  1  0
  5  6  1  1
  5  7  1  0
  8  7  1  6
  8  9  1  0
  9 10  1  0
 11 10  1  1
 11 12  1  0
 11 13  1  0
 13 14  1  0
 14 15  1  0
 15 16  1  0
 16 17  1  0
 17 18  1  6
 17 19  1  0
 19 20  1  0
 20 21  1  6
 20 22  1  0
 22 23  1  0
 23 24  1  0
 23 25  1  1
  8 26  1  0
 26 27  1  0
 27 28  1  0
 22 12  1  1
M  RAD  4   3   2   7   2   9   2  26   2
M  END
>  <docking_score>  (3) 
-3.476

$$$$
