
     RDKit          3D

 17 18  0  0  0  0  0  0  0  0999 V2000
   18.0736   -6.0106   -4.9402 C   0  0  0  0  0  0  0  0  0  0  0  0
   18.0946   -7.3627   -4.5252 O   0  0  0  0  0  0  0  0  0  0  0  0
   18.0052   -8.4992   -5.3165 C   0  0  0  0  0  0  0  0  0  0  0  0
   17.7259   -8.6462   -6.6030 C   0  0  0  0  0  0  0  0  0  0  0  0
   17.4329   -7.5070   -7.5009 C   0  0  0  0  0  0  0  0  0  0  0  0
   17.0590   -6.2720   -7.1969 C   0  0  0  0  0  0  0  0  0  0  0  0
   16.8536   -5.7788   -5.8096 C   0  0  2  0  0  0  0  0  0  0  0  0
   16.1846   -4.0993   -5.7769 S   0  0  0  0  0  0  0  0  0  0  0  0
   15.7632   -3.1721   -7.0403 C   0  0  0  0  0  0  0  0  0  0  0  0
   15.2520   -1.8565   -6.6958 C   0  0  0  0  0  0  0  0  0  0  0  0
   15.1109   -1.3790   -5.4792 C   0  0  0  0  0  0  0  0  0  0  0  0
   14.6050   -0.0999   -5.3642 F   0  0  0  0  0  0  0  0  0  0  0  0
   15.4392   -2.0762   -4.2481 C   0  0  0  0  0  0  0  0  0  0  0  0
   15.9310   -3.3009   -4.1750 C   0  0  0  0  0  0  0  0  0  0  0  0
   16.2536   -3.9784   -2.8912 C   0  0  0  0  0  0  0  0  0  0  0  0
   17.1385   -3.0539   -2.0951 C   0  0  0  0  0  0  0  0  0  0  0  0
   15.7444   -6.6557   -5.2144 C   0  0  0  0  0  0  0  0  0  0  0  0
  1  2  1  0
  2  3  1  0
  3  4  2  0
  4  5  1  0
  5  6  2  0
  6  7  1  0
  7  8  1  0
  8  9  2  0
  9 10  1  0
 10 11  2  0
 11 12  1  0
 11 13  1  0
 13 14  2  0
 14 15  1  0
 15 16  1  0
  7 17  1  1
  7  1  1  0
 14  8  1  0
M  END
>  <docking_score>  (1) 
-4.7610000000000001

$$$$

     RDKit          3D

 17 18  0  0  0  0  0  0  0  0999 V2000
   18.0980   -5.0794   -5.0192 C   0  0  0  0  0  0  0  0  0  0  0  0
   18.4497   -6.4298   -4.7873 O   0  0  0  0  0  0  0  0  0  0  0  0
   18.2387   -7.5209   -5.6184 C   0  0  0  0  0  0  0  0  0  0  0  0
   17.5404   -7.6425   -6.7375 C   0  0  0  0  0  0  0  0  0  0  0  0
   16.7936   -6.5208   -7.3491 C   0  0  0  0  0  0  0  0  0  0  0  0
   16.3889   -5.3832   -6.8018 C   0  0  0  0  0  0  0  0  0  0  0  0
   16.6284   -5.0066   -5.3837 C   0  0  2  0  0  0  0  0  0  0  0  0
   15.7935   -3.4655   -4.9390 S   0  0  0  0  0  0  0  0  0  0  0  0
   14.6834   -2.6522   -5.7988 C   0  0  0  0  0  0  0  0  0  0  0  0
   14.1910   -1.4357   -5.1755 C   0  0  0  0  0  0  0  0  0  0  0  0
   14.5654   -0.9624   -4.0076 C   0  0  0  0  0  0  0  0  0  0  0  0
   13.9753    0.2138   -3.5912 F   0  0  0  0  0  0  0  0  0  0  0  0
   15.5427   -1.5659   -3.1186 C   0  0  0  0  0  0  0  0  0  0  0  0
   16.2006   -2.6867   -3.3593 C   0  0  0  0  0  0  0  0  0  0  0  0
   17.1945   -3.2706   -2.4199 C   0  0  0  0  0  0  0  0  0  0  0  0
   16.4816   -4.2983   -1.5791 C   0  0  0  0  0  0  0  0  0  0  0  0
   15.9357   -6.0862   -4.5421 C   0  0  0  0  0  0  0  0  0  0  0  0
  1  2  1  0
  2  3  1  0
  3  4  2  0
  4  5  1  0
  5  6  2  0
  6  7  1  0
  7  8  1  0
  8  9  2  0
  9 10  1  0
 10 11  2  0
 11 12  1  0
 11 13  1  0
 13 14  2  0
 14 15  1  0
 15 16  1  0
  7 17  1  1
  7  1  1  0
 14  8  1  0
M  END
>  <docking_score>  (2) 
-4.7430000000000003

$$$$

     RDKit          3D

 17 18  0  0  0  0  0  0  0  0999 V2000
   16.2921   -3.4176   -4.2398 C   0  0  0  0  0  0  0  0  0  0  0  0
   15.6732   -2.5126   -3.3461 O   0  0  0  0  0  0  0  0  0  0  0  0
   16.2753   -1.7337   -2.3681 C   0  0  0  0  0  0  0  0  0  0  0  0
   17.5139   -1.7275   -1.8982 C   0  0  0  0  0  0  0  0  0  0  0  0
   18.5679   -2.6434   -2.3882 C   0  0  0  0  0  0  0  0  0  0  0  0
   18.4474   -3.7846   -3.0520 C   0  0  0  0  0  0  0  0  0  0  0  0
   17.1475   -4.3873   -3.4486 C   0  0  2  0  0  0  0  0  0  0  0  0
   17.3545   -6.0235   -4.1899 S   0  0  0  0  0  0  0  0  0  0  0  0
   18.7116   -6.9083   -4.2834 C   0  0  0  0  0  0  0  0  0  0  0  0
   18.5645   -8.1946   -4.9426 C   0  0  0  0  0  0  0  0  0  0  0  0
   17.4523   -8.6772   -5.4508 C   0  0  0  0  0  0  0  0  0  0  0  0
   17.5225   -9.9246   -6.0374 F   0  0  0  0  0  0  0  0  0  0  0  0
   16.1591   -8.0159   -5.4497 C   0  0  0  0  0  0  0  0  0  0  0  0
   15.9142   -6.8242   -4.9331 C   0  0  0  0  0  0  0  0  0  0  0  0
   14.5728   -6.1828   -4.9537 C   0  0  0  0  0  0  0  0  0  0  0  0
   14.3066   -5.7227   -6.3640 C   0  0  0  0  0  0  0  0  0  0  0  0
   16.3884   -4.6415   -2.1400 C   0  0  0  0  0  0  0  0  0  0  0  0
  1  2  1  0
  2  3  1  0
  3  4  2  0
  4  5  1  0
  5  6  2  0
  6  7  1  0
  7  8  1  0
  8  9  2  0
  9 10  1  0
 10 11  2  0
 11 12  1  0
 11 13  1  0
 13 14  2  0
 14 15  1  0
 15 16  1  0
  7 17  1  1
  7  1  1  0
 14  8  1  0
M  END
>  <docking_score>  (3) 
-4.6890000000000001

$$$$
