
     RDKit          3D

 26 28  0  0  0  0  0  0  0  0999 V2000
    4.9499   11.8600    6.5422 C   0  0  0  0  0  0  0  0  0  0  0  0
    5.3473   10.4943    6.0759 C   0  0  1  0  0  0  0  0  0  0  0  0
    4.5398    9.3907    6.7483 C   0  0  0  0  0  0  0  0  0  0  0  0
    4.6864    8.1630    5.8445 C   0  0  2  0  0  0  0  0  0  0  0  0
    6.0051    8.1835    5.3551 O   0  0  0  0  0  0  0  0  0  0  0  0
    3.7907    8.3225    4.6208 C   0  0  2  0  0  0  0  0  0  0  0  0
    4.4145    7.6407    3.5693 O   0  0  0  0  0  0  0  0  0  0  0  0
    3.7986    9.7969    4.2291 C   0  0  1  0  0  0  0  0  0  0  0  0
    2.7985   10.4743    4.9422 O   0  0  0  0  0  0  0  0  0  0  0  0
    5.1440   10.3446    4.5931 C   0  0  1  0  0  0  0  0  0  0  0  0
    5.5303   11.4993    3.8481 N   0  0  0  0  0  0  0  0  0  0  0  0
    4.5255   12.5074    3.7308 C   0  0  0  0  0  3  0  0  0  0  0  0
    5.1654   13.7461    3.1507 C   0  0  0  0  0  0  0  0  0  0  0  0
    6.6805   13.6391    3.2322 C   0  0  1  0  0  0  0  0  0  0  0  0
    7.1326   12.4351    2.6559 O   0  0  0  0  0  0  0  0  0  0  0  0
    7.4516   14.9812    2.3014 S   0  0  0  0  0  0  0  0  0  0  0  0
    8.9778   14.4183    1.7109 O   0  0  0  0  0  0  0  0  0  0  0  0
    9.9966   15.1509    2.1988 N   0  0  0  0  0  0  0  0  0  0  0  0
    9.5902   15.6607    3.3828 O   0  0  0  0  0  0  0  0  0  0  0  0
    9.2415   14.6269    4.2366 C   0  0  1  0  0  0  0  0  0  0  0  0
   10.2877   14.4786    5.1488 O   0  0  0  0  0  0  0  0  0  0  0  0
    7.9217   14.8708    4.9378 C   0  0  2  0  0  0  0  0  0  0  0  0
    8.1059   15.1473    6.2865 O   0  0  0  0  0  0  0  0  0  0  0  0
    7.0529   13.6683    4.6949 C   0  0  1  0  0  0  0  0  0  0  0  0
    5.9508   13.6085    5.5342 O   0  0  0  0  0  0  0  0  0  0  0  0
    6.0754   12.6888    6.4711 O   0  0  0  0  0  0  0  0  0  0  0  0
  2  1  1  1
  2  3  1  0
  3  4  1  0
  4  5  1  6
  4  6  1  0
  6  7  1  6
  6  8  1  0
  8  9  1  1
  8 10  1  0
 10 11  1  6
 11 12  1  0
 12 13  1  0
 13 14  1  0
 14 15  1  6
 14 16  1  0
 16 17  1  0
 17 18  1  0
 18 19  1  0
 19 20  1  0
 20 21  1  1
 20 22  1  0
 22 23  1  1
 22 24  1  0
 24 25  1  1
 25 26  1  0
 26  1  1  0
 10  2  1  0
 24 14  1  0
M  RAD  1  12   2
M  END
>  <docking_score>  (1) 
-6.0999999999999996

$$$$

     RDKit          3D

 26 28  0  0  0  0  0  0  0  0999 V2000
    2.6727   10.2701    3.9654 C   0  0  0  0  0  0  0  0  0  0  0  0
    3.2398    9.2001    4.8452 C   0  0  1  0  0  0  0  0  0  0  0  0
    2.2576    8.0595    5.0832 C   0  0  0  0  0  0  0  0  0  0  0  0
    3.1084    6.8709    5.5402 C   0  0  2  0  0  0  0  0  0  0  0  0
    4.1317    7.4002    6.3475 O   0  0  0  0  0  0  0  0  0  0  0  0
    3.8116    6.2556    4.3351 C   0  0  2  0  0  0  0  0  0  0  0  0
    5.0169    5.7165    4.7998 O   0  0  0  0  0  0  0  0  0  0  0  0
    4.1952    7.3917    3.3919 C   0  0  1  0  0  0  0  0  0  0  0  0
    3.1263    7.6578    2.5234 O   0  0  0  0  0  0  0  0  0  0  0  0
    4.4757    8.5946    4.2385 C   0  0  1  0  0  0  0  0  0  0  0  0
    5.3374    9.5553    3.6285 N   0  0  0  0  0  0  0  0  0  0  0  0
    5.0172    9.8819    2.2756 C   0  0  0  0  0  3  0  0  0  0  0  0
    5.8450   11.0781    1.8705 C   0  0  0  0  0  0  0  0  0  0  0  0
    6.4411   11.7429    3.1019 C   0  0  1  0  0  0  0  0  0  0  0  0
    7.1342   10.8062    3.8947 O   0  0  0  0  0  0  0  0  0  0  0  0
    7.6434   12.9988    2.6125 S   0  0  0  0  0  0  0  0  0  0  0  0
    8.8378   13.1144    3.8594 O   0  0  0  0  0  0  0  0  0  0  0  0
    8.8663   14.3459    4.4031 N   0  0  0  0  0  0  0  0  0  0  0  0
    7.6350   14.8805    4.2445 O   0  0  0  0  0  0  0  0  0  0  0  0
    6.6950   14.0671    4.8560 C   0  0  1  0  0  0  0  0  0  0  0  0
    6.3379   14.6843    6.0561 O   0  0  0  0  0  0  0  0  0  0  0  0
    5.4865   13.8130    3.9794 C   0  0  2  0  0  0  0  0  0  0  0  0
    4.3648   14.4807    4.4538 O   0  0  0  0  0  0  0  0  0  0  0  0
    5.2957   12.3243    3.8949 C   0  0  1  0  0  0  0  0  0  0  0  0
    4.0540   11.9571    3.3990 O   0  0  0  0  0  0  0  0  0  0  0  0
    3.2514   11.4896    4.3351 O   0  0  0  0  0  0  0  0  0  0  0  0
  2  1  1  6
  2  3  1  0
  3  4  1  0
  4  5  1  1
  4  6  1  0
  6  7  1  1
  6  8  1  0
  8  9  1  6
  8 10  1  0
 10 11  1  6
 11 12  1  0
 12 13  1  0
 13 14  1  0
 14 15  1  1
 14 16  1  0
 16 17  1  0
 17 18  1  0
 18 19  1  0
 19 20  1  0
 20 21  1  1
 20 22  1  0
 22 23  1  1
 22 24  1  0
 24 25  1  6
 25 26  1  0
 26  1  1  0
 10  2  1  0
 24 14  1  0
M  RAD  1  12   2
M  END
>  <docking_score>  (2) 
-5.6340000000000003

$$$$

     RDKit          3D

 26 28  0  0  0  0  0  0  0  0999 V2000
    5.5970   10.6886    1.8507 C   0  0  0  0  0  0  0  0  0  0  0  0
    6.6354   11.2599    2.7650 C   0  0  1  0  0  0  0  0  0  0  0  0
    7.4558   12.3592    2.1011 C   0  0  0  0  0  0  0  0  0  0  0  0
    8.0840   13.1554    3.2487 C   0  0  2  0  0  0  0  0  0  0  0  0
    8.4164   12.2214    4.2468 O   0  0  0  0  0  0  0  0  0  0  0  0
    7.0315   14.0663    3.8715 C   0  0  2  0  0  0  0  0  0  0  0  0
    7.3692   14.2129    5.2220 O   0  0  0  0  0  0  0  0  0  0  0  0
    5.7008   13.3204    3.8495 C   0  0  1  0  0  0  0  0  0  0  0  0
    5.0551   13.5545    2.6265 O   0  0  0  0  0  0  0  0  0  0  0  0
    6.0083   11.8618    3.9925 C   0  0  1  0  0  0  0  0  0  0  0  0
    4.9349   11.0834    4.5211 N   0  0  0  0  0  0  0  0  0  0  0  0
    3.6586   11.3341    3.9313 C   0  0  0  0  0  3  0  0  0  0  0  0
    2.7010   10.2683    4.4084 C   0  0  0  0  0  0  0  0  0  0  0  0
    3.4711    9.1141    5.0315 C   0  0  1  0  0  0  0  0  0  0  0  0
    4.3570    9.5773    6.0250 O   0  0  0  0  0  0  0  0  0  0  0  0
    2.3328    7.9709    5.8437 S   0  0  0  0  0  0  0  0  0  0  0  0
    3.1685    7.2276    7.1643 O   0  0  0  0  0  0  0  0  0  0  0  0
    3.2454    5.8922    7.0110 N   0  0  0  0  0  0  0  0  0  0  0  0
    3.1950    5.6395    5.6841 O   0  0  0  0  0  0  0  0  0  0  0  0
    4.2378    6.2936    5.0485 C   0  0  1  0  0  0  0  0  0  0  0  0
    5.2078    5.3328    4.7581 O   0  0  0  0  0  0  0  0  0  0  0  0
    3.7907    7.0280    3.8018 C   0  0  2  0  0  0  0  0  0  0  0  0
    4.2503    6.4016    2.6504 O   0  0  0  0  0  0  0  0  0  0  0  0
    4.2566    8.4518    3.9256 C   0  0  1  0  0  0  0  0  0  0  0  0
    4.2032    9.1529    2.7304 O   0  0  0  0  0  0  0  0  0  0  0  0
    5.3960    9.3492    2.2033 O   0  0  0  0  0  0  0  0  0  0  0  0
  2  1  1  6
  2  3  1  0
  3  4  1  0
  4  5  1  1
  4  6  1  0
  6  7  1  1
  6  8  1  0
  8  9  1  6
  8 10  1  0
 10 11  1  6
 11 12  1  0
 12 13  1  0
 13 14  1  0
 14 15  1  1
 14 16  1  0
 16 17  1  0
 17 18  1  0
 18 19  1  0
 19 20  1  0
 20 21  1  6
 20 22  1  0
 22 23  1  6
 22 24  1  0
 24 25  1  6
 25 26  1  0
 26  1  1  0
 10  2  1  0
 24 14  1  0
M  RAD  1  12   2
M  END
>  <docking_score>  (3) 
-5.4290000000000003

$$$$
