
     RDKit          3D

 29 31  0  0  0  0  0  0  0  0999 V2000
    8.4629   13.7011   12.4686 C   0  0  0  0  0  0  0  0  0  0  0  0
    8.8141   13.8173   13.9420 C   0  0  0  0  0  0  0  0  0  0  0  0
   10.3153   13.7021   14.0481 C   0  0  0  0  0  0  0  0  0  0  0  0
    8.4180   15.1796   14.4760 C   0  0  0  0  0  0  0  0  0  0  0  0
    7.5421   14.9789   15.6878 C   0  0  0  0  0  0  0  0  0  0  0  0
    6.1036   15.2158   15.2922 C   0  0  0  0  0  0  0  0  0  0  0  0
    5.3371   13.9049   15.3866 C   0  0  1  0  0  0  0  0  0  0  0  0
    4.0749   14.0914   16.1972 C   0  0  0  0  0  0  0  0  0  0  0  0
    4.9665   13.4272   13.9806 C   0  0  0  0  0  3  0  0  0  0  0  0
    4.8898   11.8969   14.0357 C   0  0  0  0  0  0  0  0  0  0  0  0
    5.8198   11.3444   12.9671 C   0  0  0  0  0  0  0  0  0  0  0  0
    5.0272   11.1379   11.6939 C   0  0  0  0  0  3  0  0  0  0  0  0
    5.3556    9.7583   11.1644 C   0  0  0  0  0  0  0  0  0  0  0  0
    5.4128   12.1930   10.7219 C   0  0  0  0  0  0  0  0  0  0  0  0
    4.7030   12.1160    9.4054 C   0  0  0  0  0  0  0  0  0  0  0  0
    4.8713   13.2870    8.5256 C   0  0  1  0  0  0  0  0  0  0  0  0
    5.4162   14.5156    9.1937 C   0  0  0  0  0  0  0  0  0  0  0  0
    5.6609   12.9863    7.2613 C   0  0  1  0  0  0  0  0  0  0  0  0
    5.1410   13.5527    5.9884 C   0  0  0  0  0  0  0  0  0  0  0  0
    6.1986   14.1592    6.5235 C   0  0  0  0  0  0  0  0  0  0  0  0
    6.6040   15.2331    5.7456 O   0  0  0  0  0  0  0  0  0  0  0  0
    6.0410   15.0598    4.4582 C   0  0  0  0  0  0  0  0  0  0  0  0
    4.8105   14.2796    4.7499 C   0  0  1  0  0  0  0  0  0  0  0  0
    4.3914   13.4246    3.6346 C   0  0  0  0  0  0  0  0  0  0  0  0
    5.2497   12.8186    2.8255 O   0  0  0  0  0  0  0  0  0  0  0  0
    5.9474   11.7241    3.1346 C   0  0  1  0  0  0  0  0  0  0  0  0
    5.4744   10.6144    3.8303 O   0  0  0  0  0  0  0  0  0  0  0  0
    5.8415   10.4601    2.4096 C   0  0  0  0  0  0  0  0  0  0  0  0
    5.9188    9.6694    1.4529 O   0  0  0  0  0  0  0  0  0  0  0  0
  1  2  1  0
  2  3  1  0
  2  4  1  0
  4  5  1  0
  5  6  1  0
  6  7  1  0
  7  8  1  1
  7  9  1  0
  9 10  1  0
 10 11  1  0
 11 12  1  0
 12 13  1  0
 12 14  1  0
 14 15  1  0
 15 16  1  0
 16 17  1  1
 16 18  1  0
 18 19  1  6
 19 20  2  0
 20 21  1  0
 21 22  1  0
 22 23  1  0
 23 24  1  6
 24 25  1  0
 26 25  1  6
 26 27  1  0
 27 28  1  0
 28 29  2  0
 20 18  1  0
 23 19  1  0
 28 26  1  0
M  RAD  2   9   2  12   2
M  END
>  <docking_score>  (1) 
-2.956

$$$$

     RDKit          3D

 29 31  0  0  0  0  0  0  0  0999 V2000
    6.7479   14.1267    2.7602 C   0  0  0  0  0  0  0  0  0  0  0  0
    5.3537   13.8700    3.3059 C   0  0  0  0  0  0  0  0  0  0  0  0
    5.1397   12.3760    3.2847 C   0  0  0  0  0  0  0  0  0  0  0  0
    5.2554   14.3287    4.7474 C   0  0  0  0  0  0  0  0  0  0  0  0
    3.9281   13.8737    5.3016 C   0  0  0  0  0  0  0  0  0  0  0  0
    3.6953   14.5578    6.6282 C   0  0  0  0  0  0  0  0  0  0  0  0
    3.4728   13.5031    7.7019 C   0  0  1  0  0  0  0  0  0  0  0  0
    2.4859   12.4639    7.2212 C   0  0  0  0  0  0  0  0  0  0  0  0
    4.8025   12.8205    8.0311 C   0  0  0  0  0  3  0  0  0  0  0  0
    5.3382   13.4802    9.3073 C   0  0  0  0  0  0  0  0  0  0  0  0
    4.1568   13.7435   10.2275 C   0  0  0  0  0  0  0  0  0  0  0  0
    4.3437   12.9419   11.4981 C   0  0  0  0  0  3  0  0  0  0  0  0
    5.6224   12.1441   11.3567 C   0  0  0  0  0  0  0  0  0  0  0  0
    3.1689   12.0490   11.6697 C   0  0  0  0  0  0  0  0  0  0  0  0
    3.2054   10.8051   10.8368 C   0  0  0  0  0  0  0  0  0  0  0  0
    2.8254    9.5636   11.5352 C   0  0  1  0  0  0  0  0  0  0  0  0
    2.5907    8.3766   10.6471 C   0  0  0  0  0  0  0  0  0  0  0  0
    3.7710    9.1909   12.6662 C   0  0  1  0  0  0  0  0  0  0  0  0
    3.1959    9.1282   14.0360 C   0  0  0  0  0  0  0  0  0  0  0  0
    3.4318    7.9643   13.4341 C   0  0  0  0  0  0  0  0  0  0  0  0
    3.0752    6.9004   14.2487 O   0  0  0  0  0  0  0  0  0  0  0  0
    2.9904    7.3916   15.5738 C   0  0  0  0  0  0  0  0  0  0  0  0
    2.6354    8.8189   15.3634 C   0  0  1  0  0  0  0  0  0  0  0  0
    3.1037    9.6952   16.4420 C   0  0  0  0  0  0  0  0  0  0  0  0
    3.4909    9.2411   17.6263 O   0  0  0  0  0  0  0  0  0  0  0  0
    3.8650   10.0077   18.6524 C   0  0  1  0  0  0  0  0  0  0  0  0
    3.1866   10.1577   19.8592 O   0  0  0  0  0  0  0  0  0  0  0  0
    4.5040    9.4933   19.8615 C   0  0  0  0  0  0  0  0  0  0  0  0
    5.3718    8.9443   20.5628 O   0  0  0  0  0  0  0  0  0  0  0  0
  1  2  1  0
  2  3  1  0
  2  4  1  0
  4  5  1  0
  5  6  1  0
  6  7  1  0
  7  8  1  6
  7  9  1  0
  9 10  1  0
 10 11  1  0
 11 12  1  0
 12 13  1  0
 12 14  1  0
 14 15  1  0
 15 16  1  0
 16 17  1  6
 16 18  1  0
 18 19  1  1
 19 20  2  0
 20 21  1  0
 21 22  1  0
 22 23  1  0
 23 24  1  1
 24 25  1  0
 26 25  1  6
 26 27  1  0
 27 28  1  0
 28 29  2  0
 20 18  1  0
 23 19  1  0
 28 26  1  0
M  RAD  2   9   2  12   2
M  END
>  <docking_score>  (2) 
-2.7440000000000002

$$$$

     RDKit          3D

 29 31  0  0  0  0  0  0  0  0999 V2000
   13.3209   -0.2831   -4.2692 C   0  0  0  0  0  0  0  0  0  0  0  0
   14.6866   -0.5478   -4.8795 C   0  0  0  0  0  0  0  0  0  0  0  0
   15.1571   -1.8796   -4.3472 C   0  0  0  0  0  0  0  0  0  0  0  0
   14.5802   -0.6662   -6.3870 C   0  0  0  0  0  0  0  0  0  0  0  0
   14.9231   -2.0822   -6.7781 C   0  0  0  0  0  0  0  0  0  0  0  0
   15.9857   -2.0461   -7.8513 C   0  0  0  0  0  0  0  0  0  0  0  0
   17.0509   -3.0852   -7.5348 C   0  0  1  0  0  0  0  0  0  0  0  0
   17.0572   -3.3978   -6.0559 C   0  0  0  0  0  0  0  0  0  0  0  0
   16.7630   -4.3675   -8.3192 C   0  0  0  0  0  3  0  0  0  0  0  0
   18.1182   -5.0144   -8.6286 C   0  0  0  0  0  0  0  0  0  0  0  0
   18.7960   -5.3333   -7.3054 C   0  0  0  0  0  0  0  0  0  0  0  0
   19.7471   -6.4923   -7.5145 C   0  0  0  0  0  3  0  0  0  0  0  0
   20.6165   -6.1661   -8.7101 C   0  0  0  0  0  0  0  0  0  0  0  0
   18.9476   -7.7220   -7.7503 C   0  0  0  0  0  0  0  0  0  0  0  0
   18.8820   -8.6556   -6.5813 C   0  0  0  0  0  0  0  0  0  0  0  0
   17.9592   -8.2565   -5.5029 C   0  0  1  0  0  0  0  0  0  0  0  0
   16.8927   -9.2589   -5.1705 C   0  0  0  0  0  0  0  0  0  0  0  0
   18.6676   -7.8076   -4.2345 C   0  0  1  0  0  0  0  0  0  0  0  0
   19.0359   -6.3702   -4.1379 C   0  0  0  0  0  0  0  0  0  0  0  0
   17.9811   -6.7650   -3.4279 C   0  0  0  0  0  0  0  0  0  0  0  0
   17.4305   -5.7061   -2.7220 O   0  0  0  0  0  0  0  0  0  0  0  0
   18.4102   -4.6862   -2.6561 C   0  0  0  0  0  0  0  0  0  0  0  0
   19.2066   -4.9281   -3.8870 C   0  0  1  0  0  0  0  0  0  0  0  0
   20.6013   -4.4912   -3.7672 C   0  0  0  0  0  0  0  0  0  0  0  0
   21.0547   -3.7936   -2.7345 O   0  0  0  0  0  0  0  0  0  0  0  0
   20.9474   -2.4703   -2.6013 C   0  0  1  0  0  0  0  0  0  0  0  0
   21.3824   -1.5123   -3.5135 O   0  0  0  0  0  0  0  0  0  0  0  0
   19.9339   -1.6642   -3.2778 C   0  0  0  0  0  0  0  0  0  0  0  0
   18.7995   -1.2545   -3.5807 O   0  0  0  0  0  0  0  0  0  0  0  0
  1  2  1  0
  2  3  1  0
  2  4  1  0
  4  5  1  0
  5  6  1  0
  6  7  1  0
  7  8  1  1
  7  9  1  0
  9 10  1  0
 10 11  1  0
 11 12  1  0
 12 13  1  0
 12 14  1  0
 14 15  1  0
 15 16  1  0
 16 17  1  1
 16 18  1  0
 18 19  1  6
 19 20  2  0
 20 21  1  0
 21 22  1  0
 22 23  1  0
 23 24  1  1
 24 25  1  0
 26 25  1  6
 26 27  1  0
 27 28  1  0
 28 29  2  0
 20 18  1  0
 23 19  1  0
 28 26  1  0
M  RAD  2   9   2  12   2
M  END
>  <docking_score>  (3) 
-2.4649999999999999

$$$$
