
     RDKit          3D

 26 28  0  0  0  0  0  0  0  0999 V2000
   20.7009   -4.7396   -4.2227 C   0  0  0  0  0  0  0  0  0  0  0  0
   20.7097   -5.8461   -5.2179 C   0  0  0  0  0  0  0  0  0  0  0  0
   21.3815   -6.8896   -4.9436 O   0  0  0  0  0  0  0  0  0  0  0  0
   20.0193   -5.7819   -6.4211 O   0  0  0  0  0  0  0  0  0  0  0  0
   20.0090   -6.9094   -7.2775 C   0  0  0  0  0  3  0  0  0  0  0  0
   20.6518   -6.6035   -8.5622 C   0  0  0  0  0  0  0  0  0  0  0  0
   21.2239   -5.5386   -8.6992 O   0  0  0  0  0  0  0  0  0  0  0  0
   18.5614   -7.2695   -7.5418 C   0  0  0  0  0  0  0  0  0  0  0  0
   17.9772   -7.7718   -6.2530 C   0  0  0  0  0  0  0  0  0  0  0  0
   16.5000   -7.4604   -6.1291 C   0  0  0  0  0  3  0  0  0  0  0  0
   16.2796   -6.7641   -4.8366 C   0  0  2  0  0  0  0  0  0  0  0  0
   14.8205   -6.5350   -4.5206 C   0  0  0  0  0  0  0  0  0  0  0  0
   14.2944   -5.3834   -5.3576 C   0  0  2  0  0  0  0  0  0  0  0  0
   14.3139   -5.9087   -6.8006 C   0  0  0  0  0  0  0  0  0  0  0  0
   15.2062   -4.2794   -5.1533 C   0  0  0  0  0  0  0  0  0  0  0  0
   15.3931   -3.1051   -4.7147 C   0  0  0  0  0  0  0  0  0  0  0  0
   15.5391   -2.1460   -5.8039 C   0  0  0  0  0  0  0  0  0  0  0  0
   15.3315   -0.9274   -5.6551 O   0  0  0  0  0  0  0  0  0  0  0  0
   15.9720   -2.7596   -7.1426 C   0  0  0  0  0  0  0  0  0  0  0  0
   16.3824   -4.2411   -7.0329 C   0  0  0  0  0  0  0  0  0  0  0  0
   16.6859   -4.5385   -5.7062 C   0  0  1  0  0  0  0  0  0  0  0  0
   17.5995   -3.3071   -5.3650 C   0  0  0  0  0  0  0  0  0  0  0  0
   17.0744   -5.4546   -4.7377 C   0  0  1  0  0  0  0  0  0  0  0  0
   16.7921   -4.9563   -3.3575 C   0  0  0  0  0  0  0  0  0  0  0  0
   16.9341   -3.5829   -2.8943 C   0  0  0  0  0  0  0  0  0  0  0  0
   15.6880   -2.6864   -3.3522 C   0  0  0  0  0  3  0  0  0  0  0  0
  1  2  1  0
  2  3  2  0
  2  4  1  0
  4  5  1  0
  5  6  1  0
  6  7  2  0
  5  8  1  0
  8  9  1  0
  9 10  1  0
 11 10  1  6
 11 12  1  0
 12 13  1  0
 13 14  1  6
 13 15  1  0
 15 16  2  0
 16 17  1  0
 17 18  2  0
 17 19  1  0
 19 20  1  0
 20 21  1  0
 21 22  1  1
 21 23  1  0
 23 24  1  1
 24 25  1  0
 25 26  1  0
 23 11  1  0
 21 15  1  0
 26 16  1  0
M  RAD  3   5   2  10   2  26   2
M  END
>  <docking_score>  (1) 
-3.851

$$$$

     RDKit          3D

 26 28  0  0  0  0  0  0  0  0999 V2000
   18.3134    4.3297   -6.7575 C   0  0  0  0  0  0  0  0  0  0  0  0
   19.5207    4.4978   -5.9037 C   0  0  0  0  0  0  0  0  0  0  0  0
   19.6059    5.5468   -5.1912 O   0  0  0  0  0  0  0  0  0  0  0  0
   20.5457    3.5621   -5.8568 O   0  0  0  0  0  0  0  0  0  0  0  0
   20.4871    2.5138   -4.9069 C   0  0  0  0  0  3  0  0  0  0  0  0
   21.3825    2.7772   -3.7729 C   0  0  0  0  0  0  0  0  0  0  0  0
   21.1024    3.6665   -2.9915 O   0  0  0  0  0  0  0  0  0  0  0  0
   20.9493    1.2462   -5.5957 C   0  0  0  0  0  0  0  0  0  0  0  0
   20.3620    0.0843   -4.8475 C   0  0  0  0  0  0  0  0  0  0  0  0
   19.4886   -0.7863   -5.7271 C   0  0  0  0  0  3  0  0  0  0  0  0
   18.7874   -1.7660   -4.8597 C   0  0  2  0  0  0  0  0  0  0  0  0
   19.3882   -3.1509   -4.9127 C   0  0  0  0  0  0  0  0  0  0  0  0
   18.9778   -3.8335   -6.2047 C   0  0  2  0  0  0  0  0  0  0  0  0
   19.6954   -3.0431   -7.3088 C   0  0  0  0  0  0  0  0  0  0  0  0
   17.5379   -3.7236   -6.2857 C   0  0  0  0  0  0  0  0  0  0  0  0
   16.4136   -4.3081   -6.3063 C   0  0  0  0  0  0  0  0  0  0  0  0
   15.8180   -4.2720   -7.6372 C   0  0  0  0  0  0  0  0  0  0  0  0
   14.9526   -5.0877   -8.0056 O   0  0  0  0  0  0  0  0  0  0  0  0
   16.3410   -3.1474   -8.5416 C   0  0  0  0  0  0  0  0  0  0  0  0
   17.2370   -2.1342   -7.8027 C   0  0  0  0  0  0  0  0  0  0  0  0
   17.0007   -2.2229   -6.4327 C   0  0  1  0  0  0  0  0  0  0  0  0
   15.4300   -2.2232   -6.4381 C   0  0  0  0  0  0  0  0  0  0  0  0
   17.2781   -1.8122   -5.1355 C   0  0  1  0  0  0  0  0  0  0  0  0
   16.7485   -2.7756   -4.1234 C   0  0  0  0  0  0  0  0  0  0  0  0
   15.4890   -3.5022   -4.2057 C   0  0  0  0  0  0  0  0  0  0  0  0
   15.6141   -4.7676   -5.1800 C   0  0  0  0  0  3  0  0  0  0  0  0
  1  2  1  0
  2  3  2  0
  2  4  1  0
  4  5  1  0
  5  6  1  0
  6  7  2  0
  5  8  1  0
  8  9  1  0
  9 10  1  0
 11 10  1  6
 11 12  1  0
 12 13  1  0
 13 14  1  6
 13 15  1  0
 15 16  2  0
 16 17  1  0
 17 18  2  0
 17 19  1  0
 19 20  1  0
 20 21  1  0
 21 22  1  6
 21 23  1  0
 23 24  1  1
 24 25  1  0
 25 26  1  0
 23 11  1  0
 21 15  1  0
 26 16  1  0
M  RAD  3   5   2  10   2  26   2
M  END
>  <docking_score>  (2) 
-3.778

$$$$

     RDKit          3D

 26 28  0  0  0  0  0  0  0  0999 V2000
   12.7041   -0.9288   -4.9557 C   0  0  0  0  0  0  0  0  0  0  0  0
   13.8686   -0.0228   -4.7603 C   0  0  0  0  0  0  0  0  0  0  0  0
   13.8508    0.7645   -3.7626 O   0  0  0  0  0  0  0  0  0  0  0  0
   14.9611   -0.0056   -5.6173 O   0  0  0  0  0  0  0  0  0  0  0  0
   15.7930   -1.1478   -5.7059 C   0  0  0  0  0  3  0  0  0  0  0  0
   15.4469   -1.9644   -6.8765 C   0  0  0  0  0  0  0  0  0  0  0  0
   16.3332   -2.5370   -7.4820 O   0  0  0  0  0  0  0  0  0  0  0  0
   15.5635   -1.9783   -4.4598 C   0  0  0  0  0  0  0  0  0  0  0  0
   16.8227   -1.9271   -3.6433 C   0  0  0  0  0  0  0  0  0  0  0  0
   17.7000   -3.1429   -3.8589 C   0  0  0  0  0  3  0  0  0  0  0  0
   16.9093   -4.3520   -3.5171 C   0  0  2  0  0  0  0  0  0  0  0  0
   17.6835   -5.3650   -2.7071 C   0  0  0  0  0  0  0  0  0  0  0  0
   18.6435   -6.1134   -3.6136 C   0  0  2  0  0  0  0  0  0  0  0  0
   19.6803   -5.0624   -4.0370 C   0  0  0  0  0  0  0  0  0  0  0  0
   17.8586   -6.6025   -4.7257 C   0  0  0  0  0  0  0  0  0  0  0  0
   17.4027   -7.5964   -5.3664 C   0  0  0  0  0  0  0  0  0  0  0  0
   18.0841   -7.7649   -6.6449 C   0  0  0  0  0  0  0  0  0  0  0  0
   18.1096   -8.8518   -7.2517 O   0  0  0  0  0  0  0  0  0  0  0  0
   18.7614   -6.4959   -7.1807 C   0  0  0  0  0  0  0  0  0  0  0  0
   18.4108   -5.2287   -6.3767 C   0  0  0  0  0  0  0  0  0  0  0  0
   17.2424   -5.4512   -5.6516 C   0  0  1  0  0  0  0  0  0  0  0  0
   16.3560   -6.0969   -6.7762 C   0  0  0  0  0  0  0  0  0  0  0  0
   16.2799   -5.0054   -4.7554 C   0  0  1  0  0  0  0  0  0  0  0  0
   15.4699   -6.1337   -4.2042 C   0  0  0  0  0  0  0  0  0  0  0  0
   15.0254   -7.3106   -4.9379 C   0  0  0  0  0  0  0  0  0  0  0  0
   16.2086   -8.3803   -5.0865 C   0  0  0  0  0  3  0  0  0  0  0  0
  1  2  1  0
  2  3  2  0
  2  4  1  0
  4  5  1  0
  5  6  1  0
  6  7  2  0
  5  8  1  0
  8  9  1  0
  9 10  1  0
 11 10  1  6
 11 12  1  0
 12 13  1  0
 13 14  1  6
 13 15  1  0
 15 16  2  0
 16 17  1  0
 17 18  2  0
 17 19  1  0
 19 20  1  0
 20 21  1  0
 21 22  1  6
 21 23  1  0
 23 24  1  1
 24 25  1  0
 25 26  1  0
 23 11  1  0
 21 15  1  0
 26 16  1  0
M  RAD  3   5   2  10   2  26   2
M  END
>  <docking_score>  (3) 
-3.673

$$$$
