
     RDKit          3D

 35 41  0  0  0  0  0  0  0  0999 V2000
    3.4996    8.1098    9.2634 C   0  0  0  0  0  0  0  0  0  0  0  0
    3.3070    8.7869   10.5880 C   0  0  0  0  0  0  0  0  0  0  0  0
    3.7538   10.1842   10.2753 N   0  0  0  0  0  0  0  0  0  0  0  0
    3.8081   11.3746   11.1863 C   0  0  0  0  0  0  0  0  0  0  0  0
    3.4291   11.4617   12.6351 N   0  0  0  0  0  0  0  0  0  0  0  0
    2.9022   10.3799   13.5305 C   0  0  0  0  0  0  0  0  0  0  0  0
    2.6153   10.7881   14.9452 N   0  0  0  0  0  0  0  0  0  0  0  0
    2.6240    8.9437   13.1985 N   0  0  0  0  0  0  0  0  0  0  0  0
    2.8042    8.2348   11.8890 C   0  0  0  0  0  0  0  0  0  0  0  0
    2.6306    8.3824   12.6528 O   0  0  0  0  0  0  0  0  0  0  0  0
    2.9747    9.5818   12.5265 C   0  0  0  0  0  0  0  0  0  0  0  0
    3.4775   10.1339   11.2255 C   0  0  0  0  0  0  0  0  0  0  0  0
    3.9313   11.5206   10.8777 S   0  0  0  0  0  0  0  0  0  0  0  0
    4.4561   12.2982    9.7072 C   0  0  0  0  0  0  0  0  0  0  0  0
    4.8062   12.1027    8.2618 C   0  0  0  0  0  0  0  0  0  0  0  0
    5.0833   13.5384    8.5971 C   0  0  0  0  0  0  0  0  0  0  0  0
    5.5613   14.8767    8.1170 C   0  0  0  0  0  0  0  0  0  0  0  0
    5.4741   15.8033    9.2934 Cl  0  0  0  0  0  0  0  0  0  0  0  0
    6.0884   15.6930    6.9743 C   0  0  0  0  0  0  0  0  0  0  0  0
    6.4972   15.7279    5.5315 C   0  0  0  0  0  0  0  0  0  0  0  0
    6.6580   14.9705    4.2468 C   0  0  0  0  0  0  0  0  0  0  0  0
    6.3759   13.2584    3.6725 N   0  0  0  0  0  0  0  0  0  0  0  0
    5.8533   12.5123    4.8642 C   0  0  0  0  0  0  0  0  0  0  0  0
    5.6025   11.0929    4.4491 C   0  0  0  0  0  0  0  0  0  0  0  0
    5.1148   10.6494    5.7964 C   0  0  0  0  0  0  0  0  0  0  0  0
    4.8180   11.0258    7.2178 C   0  0  0  0  0  0  0  0  0  0  0  0
    4.4858    9.5711    7.0636 C   0  0  0  0  0  0  0  0  0  0  0  0
    3.9651    8.4196    7.8715 C   0  0  0  0  0  0  0  0  0  0  0  0
    5.0858    9.2768    4.6244 C   0  0  0  0  0  0  0  0  0  0  0  0
    5.5688    9.6901    3.2659 N   0  0  0  0  0  0  0  0  0  0  0  0
    6.0891   10.8448    2.4623 C   0  0  0  0  0  0  0  0  0  0  0  0
    6.4480   12.3001    2.5208 C   0  0  0  0  0  0  0  0  0  0  0  0
    6.6792   11.7274    1.1538 C   0  0  0  0  0  0  0  0  0  0  0  0
    6.2012   10.3889    1.6338 C   0  0  0  0  0  0  0  0  0  0  0  0
    5.9701   10.9617    3.0008 C   0  0  0  0  0  0  0  0  0  0  0  0
  1  2  1  0
  2  3  1  0
  3  4  1  0
  4  5  2  0
  5  6  1  0
  6  7  1  0
  6  8  2  0
  8  9  1  0
  9 10  1  0
  9 11  1  0
 11 12  1  0
 12 13  1  0
 13 14  1  0
 14 15  2  3
 15 16  1  0
 16 17  2  3
 17 18  1  0
 17 19  1  0
 19 20  2  0
 20 21  2  0
 21 22  1  0
 22 23  1  0
 23 24  2  0
 24 25  1  0
 25 26  2  3
 26 27  1  0
 27 28  1  0
 28 29  1  0
 29 30  1  0
 30 31  1  0
 31 32  1  0
 32 33  1  0
 33 34  1  0
 34 35  2  0
  1 28  2  3
  9  2  1  0
 12  2  1  0
 26 15  1  0
 32 22  1  0
 35 24  1  0
 35 32  1  0
M  END
>  <docking_score>  (1) 
-6.4290000000000003

$$$$

     RDKit          3D

 35 41  0  0  0  0  0  0  0  0999 V2000
    4.0490    9.7966   11.5741 C   0  0  0  0  0  0  0  0  0  0  0  0
    4.4697   11.2228   11.7710 C   0  0  0  0  0  0  0  0  0  0  0  0
    4.6188   11.6872   10.3525 N   0  0  0  0  0  0  0  0  0  0  0  0
    5.0238   13.0410    9.8494 C   0  0  0  0  0  0  0  0  0  0  0  0
    5.3798   14.2648   10.6404 N   0  0  0  0  0  0  0  0  0  0  0  0
    5.4186   14.4369   12.1300 C   0  0  0  0  0  0  0  0  0  0  0  0
    5.8178   15.7982   12.6177 N   0  0  0  0  0  0  0  0  0  0  0  0
    5.1111   13.4279   13.1964 N   0  0  0  0  0  0  0  0  0  0  0  0
    4.6888   11.9975   13.0367 C   0  0  0  0  0  0  0  0  0  0  0  0
    4.8927   12.6951   13.3641 O   0  0  0  0  0  0  0  0  0  0  0  0
    5.0542   13.2092   12.2317 C   0  0  0  0  0  0  0  0  0  0  0  0
    4.8351   12.4346   10.9660 C   0  0  0  0  0  0  0  0  0  0  0  0
    4.9742   12.8649    9.5359 S   0  0  0  0  0  0  0  0  0  0  0  0
    4.8219   12.3125    8.1496 C   0  0  0  0  0  0  0  0  0  0  0  0
    4.4495   11.0357    7.4561 C   0  0  0  0  0  0  0  0  0  0  0  0
    4.7576   12.0471    6.3920 C   0  0  0  0  0  0  0  0  0  0  0  0
    4.8578   12.3450    4.9253 C   0  0  0  0  0  0  0  0  0  0  0  0
    5.2834   13.7790    4.8135 Cl  0  0  0  0  0  0  0  0  0  0  0  0
    4.7182   11.8350    3.5216 C   0  0  0  0  0  0  0  0  0  0  0  0
    4.3831   10.6789    2.6266 C   0  0  0  0  0  0  0  0  0  0  0  0
    3.9590    9.2437    2.5244 C   0  0  0  0  0  0  0  0  0  0  0  0
    3.5502    7.8956    3.6889 N   0  0  0  0  0  0  0  0  0  0  0  0
    3.7126    8.4815    5.0601 C   0  0  0  0  0  0  0  0  0  0  0  0
    3.3881    7.4134    6.0620 C   0  0  0  0  0  0  0  0  0  0  0  0
    3.6355    8.2817    7.2599 C   0  0  0  0  0  0  0  0  0  0  0  0
    4.0311    9.6320    7.7796 C   0  0  0  0  0  0  0  0  0  0  0  0
    3.7627    8.7582    8.9689 C   0  0  0  0  0  0  0  0  0  0  0  0
    3.7697    8.8232   10.4674 C   0  0  0  0  0  0  0  0  0  0  0  0
    3.1398    6.6218    7.7672 C   0  0  0  0  0  0  0  0  0  0  0  0
    2.8849    5.7288    6.5893 N   0  0  0  0  0  0  0  0  0  0  0  0
    2.8794    5.6690    5.0906 C   0  0  0  0  0  0  0  0  0  0  0  0
    3.1254    6.4653    3.8433 C   0  0  0  0  0  0  0  0  0  0  0  0
    2.7113    5.0582    3.5292 C   0  0  0  0  0  0  0  0  0  0  0  0
    2.6111    4.7602    4.9959 C   0  0  0  0  0  0  0  0  0  0  0  0
    3.0252    6.1673    5.3101 C   0  0  0  0  0  0  0  0  0  0  0  0
  1  2  1  0
  2  3  1  0
  3  4  1  0
  4  5  2  0
  5  6  1  0
  6  7  1  0
  6  8  2  0
  8  9  1  0
  9 10  1  0
  9 11  1  0
 11 12  1  0
 12 13  1  0
 13 14  1  0
 14 15  2  3
 15 16  1  0
 16 17  2  3
 17 18  1  0
 17 19  1  0
 19 20  2  0
 20 21  2  0
 21 22  1  0
 22 23  1  0
 23 24  2  0
 24 25  1  0
 25 26  2  3
 26 27  1  0
 27 28  1  0
 28 29  1  0
 29 30  1  0
 30 31  1  0
 31 32  1  0
 32 33  1  0
 33 34  1  0
 34 35  2  0
  1 28  2  3
  9  2  1  0
 12  2  1  0
 26 15  1  0
 32 22  1  0
 35 24  1  0
 35 32  1  0
M  END
>  <docking_score>  (2) 
-6.1459999999999999

$$$$

     RDKit          3D

 35 41  0  0  0  0  0  0  0  0999 V2000
    4.1743    8.0726    6.4984 C   0  0  0  0  0  0  0  0  0  0  0  0
    4.5925    9.0070    5.4020 C   0  0  0  0  0  0  0  0  0  0  0  0
    4.7770   10.2891    6.1583 N   0  0  0  0  0  0  0  0  0  0  0  0
    5.1965   11.6311    5.6357 C   0  0  0  0  0  0  0  0  0  0  0  0
    5.5350   12.0224    4.2277 N   0  0  0  0  0  0  0  0  0  0  0  0
    5.5376   11.1683    2.9947 C   0  0  0  0  0  0  0  0  0  0  0  0
    5.9269   11.8623    1.7231 N   0  0  0  0  0  0  0  0  0  0  0  0
    5.2024    9.7120    2.8649 N   0  0  0  0  0  0  0  0  0  0  0  0
    4.7818    8.7501    3.9363 C   0  0  0  0  0  0  0  0  0  0  0  0
    4.9788    9.0546    3.2264 O   0  0  0  0  0  0  0  0  0  0  0  0
    5.1688   10.1852    3.7348 C   0  0  0  0  0  0  0  0  0  0  0  0
    4.9795   10.4420    5.2005 C   0  0  0  0  0  0  0  0  0  0  0  0
    5.1543   11.7065    5.9883 S   0  0  0  0  0  0  0  0  0  0  0  0
    5.0351   12.2087    7.3967 C   0  0  0  0  0  0  0  0  0  0  0  0
    4.6777   11.7135    8.7667 C   0  0  0  0  0  0  0  0  0  0  0  0
    5.0135   13.1700    8.8931 C   0  0  0  0  0  0  0  0  0  0  0  0
    5.1501   14.3597    9.7964 C   0  0  0  0  0  0  0  0  0  0  0  0
    5.5806   15.5034    8.9266 Cl  0  0  0  0  0  0  0  0  0  0  0  0
    5.0441   14.9051   11.1897 C   0  0  0  0  0  0  0  0  0  0  0  0
    4.7291   14.6328   12.6308 C   0  0  0  0  0  0  0  0  0  0  0  0
    4.3052   13.6294   13.6620 C   0  0  0  0  0  0  0  0  0  0  0  0
    3.8658   11.8554   13.6842 N   0  0  0  0  0  0  0  0  0  0  0  0
    3.9955   11.3881   12.2648 C   0  0  0  0  0  0  0  0  0  0  0  0
    3.6448    9.9303   12.2227 C   0  0  0  0  0  0  0  0  0  0  0  0
    3.8642    9.7880   10.7458 C   0  0  0  0  0  0  0  0  0  0  0  0
    4.2492   10.4528    9.4573 C   0  0  0  0  0  0  0  0  0  0  0  0
    3.9503    9.0163    9.1454 C   0  0  0  0  0  0  0  0  0  0  0  0
    3.9207    8.0764    7.9769 C   0  0  0  0  0  0  0  0  0  0  0  0
    3.3535    8.2149   11.4688 C   0  0  0  0  0  0  0  0  0  0  0  0
    3.1261    8.3256   12.9472 N   0  0  0  0  0  0  0  0  0  0  0  0
    3.1572    9.2695   14.1125 C   0  0  0  0  0  0  0  0  0  0  0  0
    3.4350   10.6864   14.5195 C   0  0  0  0  0  0  0  0  0  0  0  0
    3.0264    9.8437   15.6913 C   0  0  0  0  0  0  0  0  0  0  0  0
    2.8898    8.6539   14.7880 C   0  0  0  0  0  0  0  0  0  0  0  0
    3.2984    9.4966   13.6162 C   0  0  0  0  0  0  0  0  0  0  0  0
  1  2  1  0
  2  3  1  0
  3  4  1  0
  4  5  2  0
  5  6  1  0
  6  7  1  0
  6  8  2  0
  8  9  1  0
  9 10  1  0
  9 11  1  0
 11 12  1  0
 12 13  1  0
 13 14  1  0
 14 15  2  3
 15 16  1  0
 16 17  2  3
 17 18  1  0
 17 19  1  0
 19 20  2  0
 20 21  2  0
 21 22  1  0
 22 23  1  0
 23 24  2  0
 24 25  1  0
 25 26  2  3
 26 27  1  0
 27 28  1  0
 28 29  1  0
 29 30  1  0
 30 31  1  0
 31 32  1  0
 32 33  1  0
 33 34  1  0
 34 35  2  0
  1 28  2  3
  9  2  1  0
 12  2  1  0
 26 15  1  0
 32 22  1  0
 35 24  1  0
 35 32  1  0
M  END
>  <docking_score>  (3) 
-5.9539999999999997

$$$$
