
     RDKit          3D

 27 28  0  0  0  0  0  0  0  0999 V2000
   20.2886   -6.3392   -7.2031 C   0  0  0  0  0  0  0  0  0  0  0  0
   19.1558   -5.7503   -6.3972 C   0  0  1  0  0  0  0  0  0  0  0  0
   17.8405   -5.9786   -7.1248 C   0  0  0  0  0  0  0  0  0  0  0  0
   16.9783   -6.9808   -6.4028 C   0  0  2  0  0  0  0  0  0  0  0  0
   16.3901   -6.3968   -5.2727 O   0  0  0  0  0  0  0  0  0  0  0  0
   17.7147   -8.2475   -6.0633 C   0  0  2  0  0  0  0  0  0  0  0  0
   16.8847   -9.0647   -5.3204 O   0  0  0  0  0  0  0  0  0  0  0  0
   19.0348   -7.9655   -5.3567 C   0  0  1  0  0  0  0  0  0  0  0  0
   20.0387   -8.3955   -6.2230 O   0  0  0  0  0  0  0  0  0  0  0  0
   19.0854   -6.4985   -5.0817 C   0  0  1  0  0  0  0  0  0  0  0  0
   20.1359   -6.0986   -4.2138 N   0  0  0  0  0  0  0  0  0  0  0  0
   20.7444   -4.8548   -4.4230 C   0  0  0  0  0  3  0  0  0  0  0  0
   20.4219   -3.8706   -3.5197 C   0  0  0  0  0  0  0  0  0  0  0  0
   19.3126   -3.1485   -3.2085 O   0  0  0  0  0  0  0  0  0  0  0  0
   19.2985   -1.9028   -3.6965 C   0  0  2  0  0  0  0  0  0  0  0  0
   17.9530   -1.4508   -3.0971 O   0  0  0  0  0  0  0  0  0  0  0  0
   16.9473   -2.7641   -2.8051 S   0  0  0  0  0  0  0  0  0  0  0  0
   15.3041   -2.3206   -3.1180 O   0  0  0  0  0  0  0  0  0  0  0  0
   15.2700   -1.2027   -3.9459 C   0  0  0  0  0  3  0  0  0  0  0  0
   14.6232   -1.5249   -5.2704 C   0  0  1  0  0  0  0  0  0  0  0  0
   14.7516   -0.4513   -6.1183 O   0  0  0  0  0  0  0  0  0  0  0  0
   15.3414   -2.5905   -5.8294 O   0  0  0  0  0  0  0  0  0  0  0  0
   16.5678   -2.1166   -6.2946 C   0  0  0  0  0  0  0  0  0  0  0  0
   17.6888   -2.6923   -5.4764 C   0  0  0  0  0  3  0  0  0  0  0  0
   18.7209   -1.8150   -5.1747 C   0  0  1  0  0  0  0  0  0  0  0  0
   18.7190   -0.4232   -5.3911 O   0  0  0  0  0  0  0  0  0  0  0  0
   19.8909    0.0007   -5.6698 O   0  0  0  0  0  0  0  0  0  0  0  0
  2  1  1  6
  2  3  1  0
  3  4  1  0
  4  5  1  1
  4  6  1  0
  6  7  1  1
  6  8  1  0
  8  9  1  6
  8 10  1  0
 10 11  1  1
 11 12  1  0
 12 13  1  0
 13 14  1  0
 15 14  1  1
 15 16  1  0
 16 17  1  0
 17 18  1  0
 18 19  1  0
 19 20  1  0
 20 21  1  6
 20 22  1  0
 22 23  1  0
 23 24  1  0
 24 25  1  0
 25 26  1  1
 26 27  1  0
 10  2  1  0
 25 15  1  0
M  RAD  3  12   2  19   2  24   2
M  END
>  <docking_score>  (1) 
-3.6349999999999998

$$$$

     RDKit          3D

 27 28  0  0  0  0  0  0  0  0999 V2000
   14.7903   -5.2275   -7.5378 C   0  0  0  0  0  0  0  0  0  0  0  0
   15.9543   -4.4568   -6.9627 C   0  0  1  0  0  0  0  0  0  0  0  0
   15.9552   -3.0429   -7.5217 C   0  0  0  0  0  0  0  0  0  0  0  0
   15.5954   -2.0323   -6.4642 C   0  0  2  0  0  0  0  0  0  0  0  0
   16.6788   -1.8203   -5.6007 O   0  0  0  0  0  0  0  0  0  0  0  0
   14.3410   -2.3911   -5.7162 C   0  0  2  0  0  0  0  0  0  0  0  0
   14.1408   -1.4699   -4.7063 O   0  0  0  0  0  0  0  0  0  0  0  0
   14.3790   -3.8227   -5.1961 C   0  0  1  0  0  0  0  0  0  0  0  0
   13.3788   -4.5113   -5.8806 O   0  0  0  0  0  0  0  0  0  0  0  0
   15.7480   -4.3554   -5.4652 C   0  0  1  0  0  0  0  0  0  0  0  0
   16.0336   -5.5924   -4.8289 N   0  0  0  0  0  0  0  0  0  0  0  0
   17.1474   -5.6728   -3.9839 C   0  0  0  0  0  3  0  0  0  0  0  0
   18.2758   -5.0183   -4.4164 C   0  0  0  0  0  0  0  0  0  0  0  0
   19.6081   -5.0781   -4.1513 O   0  0  0  0  0  0  0  0  0  0  0  0
   20.3325   -4.0904   -4.6896 C   0  0  2  0  0  0  0  0  0  0  0  0
   21.2498   -3.8125   -3.4832 O   0  0  0  0  0  0  0  0  0  0  0  0
   20.5180   -4.2780   -2.0448 S   0  0  0  0  0  0  0  0  0  0  0  0
   20.9519   -3.1728   -0.7859 O   0  0  0  0  0  0  0  0  0  0  0  0
   21.3817   -1.9726   -1.3437 C   0  0  0  0  0  3  0  0  0  0  0  0
   20.4643   -0.8362   -0.9652 C   0  0  1  0  0  0  0  0  0  0  0  0
   20.8217    0.2944   -1.6595 O   0  0  0  0  0  0  0  0  0  0  0  0
   19.1746   -1.1944   -1.3800 O   0  0  0  0  0  0  0  0  0  0  0  0
   19.0975   -1.0844   -2.7682 C   0  0  0  0  0  0  0  0  0  0  0  0
   18.9284   -2.4435   -3.3860 C   0  0  0  0  0  3  0  0  0  0  0  0
   19.6458   -2.6633   -4.5535 C   0  0  1  0  0  0  0  0  0  0  0  0
   20.6416   -1.8226   -5.0882 O   0  0  0  0  0  0  0  0  0  0  0  0
   21.1735   -2.3422   -6.1264 O   0  0  0  0  0  0  0  0  0  0  0  0
  2  1  1  6
  2  3  1  0
  3  4  1  0
  4  5  1  1
  4  6  1  0
  6  7  1  1
  6  8  1  0
  8  9  1  6
  8 10  1  0
 10 11  1  1
 11 12  1  0
 12 13  1  0
 13 14  1  0
 15 14  1  1
 15 16  1  0
 16 17  1  0
 17 18  1  0
 18 19  1  0
 19 20  1  0
 20 21  1  6
 20 22  1  0
 22 23  1  0
 23 24  1  0
 24 25  1  0
 25 26  1  1
 26 27  1  0
 10  2  1  0
 25 15  1  0
M  RAD  3  12   2  19   2  24   2
M  END
>  <docking_score>  (2) 
-3.4350000000000001

$$$$

     RDKit          3D

 27 28  0  0  0  0  0  0  0  0999 V2000
    5.9315    9.3738    4.4317 C   0  0  0  0  0  0  0  0  0  0  0  0
    6.5541   10.5027    5.2175 C   0  0  1  0  0  0  0  0  0  0  0  0
    7.5604   11.2363    4.3453 C   0  0  0  0  0  0  0  0  0  0  0  0
    7.0734   12.6149    3.9829 C   0  0  2  0  0  0  0  0  0  0  0  0
    7.2056   13.4837    5.0747 O   0  0  0  0  0  0  0  0  0  0  0  0
    5.6746   12.6138    3.4304 C   0  0  2  0  0  0  0  0  0  0  0  0
    5.2735   13.9188    3.2195 O   0  0  0  0  0  0  0  0  0  0  0  0
    4.7098   11.8483    4.3273 C   0  0  1  0  0  0  0  0  0  0  0  0
    4.2934   10.7392    3.5927 O   0  0  0  0  0  0  0  0  0  0  0  0
    5.4545   11.4837    5.5695 C   0  0  1  0  0  0  0  0  0  0  0  0
    4.6397   10.9780    6.6169 N   0  0  0  0  0  0  0  0  0  0  0  0
    4.2315   11.8511    7.6327 C   0  0  0  0  0  3  0  0  0  0  0  0
    3.5694   11.2731    8.6892 C   0  0  0  0  0  0  0  0  0  0  0  0
    3.8310   11.0400   10.0031 O   0  0  0  0  0  0  0  0  0  0  0  0
    4.8407   11.7565   10.5102 C   0  0  2  0  0  0  0  0  0  0  0  0
    5.1438   10.8684   11.7322 O   0  0  0  0  0  0  0  0  0  0  0  0
    3.7895    9.9883   12.1934 S   0  0  0  0  0  0  0  0  0  0  0  0
    3.7486    9.8425   13.9172 O   0  0  0  0  0  0  0  0  0  0  0  0
    4.5343   10.8377   14.4905 C   0  0  0  0  0  3  0  0  0  0  0  0
    3.6998   11.7782   15.3243 C   0  0  1  0  0  0  0  0  0  0  0  0
    4.4740   12.8346   15.7399 O   0  0  0  0  0  0  0  0  0  0  0  0
    2.7009   12.2927   14.4870 O   0  0  0  0  0  0  0  0  0  0  0  0
    3.2721   13.2205   13.6164 C   0  0  0  0  0  0  0  0  0  0  0  0
    3.2256   12.7036   12.2064 C   0  0  0  0  0  3  0  0  0  0  0  0
    4.3568   12.9504   11.4412 C   0  0  1  0  0  0  0  0  0  0  0  0
    5.5857   13.4526   11.9121 O   0  0  0  0  0  0  0  0  0  0  0  0
    6.5106   13.2911   11.0465 O   0  0  0  0  0  0  0  0  0  0  0  0
  2  1  1  6
  2  3  1  0
  3  4  1  0
  4  5  1  1
  4  6  1  0
  6  7  1  1
  6  8  1  0
  8  9  1  6
  8 10  1  0
 10 11  1  1
 11 12  1  0
 12 13  1  0
 13 14  1  0
 15 14  1  6
 15 16  1  0
 16 17  1  0
 17 18  1  0
 18 19  1  0
 19 20  1  0
 20 21  1  6
 20 22  1  0
 22 23  1  0
 23 24  1  0
 24 25  1  0
 25 26  1  1
 26 27  1  0
 10  2  1  0
 25 15  1  0
M  RAD  3  12   2  19   2  24   2
M  END
>  <docking_score>  (3) 
-3.1440000000000001

$$$$
