
     RDKit          3D

 24 24  0  0  0  0  0  0  0  0999 V2000
   15.7484   -2.1494   -3.3880 C   0  0  0  0  0  0  0  0  0  0  0  0
   16.5808   -2.3763   -2.1655 C   0  0  0  0  0  0  0  0  0  0  0  0
   17.8785   -1.5985   -2.3128 C   0  0  0  0  0  0  0  0  0  0  0  0
   16.9228   -3.8361   -2.0493 C   0  0  0  0  0  0  0  0  0  0  0  0
   18.4442   -3.9284   -1.8716 C   0  0  0  0  0  0  0  0  0  0  0  0
   18.8761   -5.1338   -2.7002 C   0  0  0  0  0  0  0  0  0  0  0  0
   19.4169   -4.6249   -3.9958 C   0  0  1  0  0  0  0  0  0  0  0  0
   20.8295   -5.0146   -4.2764 C   0  0  0  0  0  0  0  0  0  0  0  0
   18.4547   -4.9317   -5.0928 C   0  0  0  0  0  3  0  0  0  0  0  0
   18.2785   -6.4115   -5.3415 C   0  0  1  0  0  0  0  0  0  0  0  0
   16.8868   -6.7720   -4.9512 C   0  0  0  0  0  0  0  0  0  0  0  0
   15.6995   -6.2235   -5.1146 C   0  0  0  0  0  0  0  0  0  0  0  0
   14.6055   -7.0351   -4.5018 C   0  0  0  0  0  0  0  0  0  0  0  0
   15.2092   -4.9740   -5.7751 C   0  0  0  0  0  0  0  0  0  0  0  0
   15.2255   -5.1827   -7.2655 C   0  0  2  0  0  0  0  0  0  0  0  0
   15.6762   -3.9166   -7.9791 C   0  0  0  0  0  0  0  0  0  0  0  0
   15.4941   -2.7747   -6.9830 C   0  0  0  0  0  0  0  0  0  0  0  0
   16.6062   -1.8143   -7.0858 C   0  0  0  0  0  0  0  0  0  0  0  0
   17.7464   -2.1461   -7.6956 C   0  0  0  0  0  0  0  0  0  0  0  0
   13.9461   -5.4823   -7.6794 O   0  0  0  0  0  0  0  0  0  0  0  0
   16.2024   -6.3138   -7.6017 C   0  0  0  0  0  3  0  0  0  0  0  0
   17.6174   -5.7735   -7.6020 C   0  0  0  0  0  3  0  0  0  0  0  0
   18.5487   -6.6605   -6.8054 C   0  0  2  0  0  0  0  0  0  0  0  0
   18.4004   -8.1130   -7.1716 C   0  0  0  0  0  0  0  0  0  0  0  0
  1  2  1  0
  2  3  1  0
  2  4  1  0
  4  5  1  0
  5  6  1  0
  6  7  1  0
  7  8  1  6
  7  9  1  0
 10  9  1  6
 10 11  1  0
 11 12  2  3
 12 13  1  0
 12 14  1  0
 14 15  1  0
 15 16  1  0
 16 17  1  0
 17 18  1  0
 18 19  2  0
 15 20  1  6
 15 21  1  0
 21 22  1  0
 22 23  1  0
 23 24  1  6
 23 10  1  0
M  RAD  3   9   2  21   2  22   2
M  END
>  <docking_score>  (1) 
-4.782

$$$$

     RDKit          3D

 24 24  0  0  0  0  0  0  0  0999 V2000
   19.8748   -0.7471   -2.0206 C   0  0  0  0  0  0  0  0  0  0  0  0
   19.7018   -1.2433   -3.4216 C   0  0  0  0  0  0  0  0  0  0  0  0
   20.7347   -2.3277   -3.6818 C   0  0  0  0  0  0  0  0  0  0  0  0
   19.9503   -0.1206   -4.3909 C   0  0  0  0  0  0  0  0  0  0  0  0
   19.4428   -0.5893   -5.7611 C   0  0  0  0  0  0  0  0  0  0  0  0
   17.9387   -0.7770   -5.5931 C   0  0  0  0  0  0  0  0  0  0  0  0
   17.5247   -1.9251   -6.4538 C   0  0  1  0  0  0  0  0  0  0  0  0
   18.2322   -2.0067   -7.7648 C   0  0  0  0  0  0  0  0  0  0  0  0
   17.5473   -3.1825   -5.6527 C   0  0  0  0  0  3  0  0  0  0  0  0
   16.6481   -3.1385   -4.4393 C   0  0  1  0  0  0  0  0  0  0  0  0
   15.3533   -3.7725   -4.8140 C   0  0  0  0  0  0  0  0  0  0  0  0
   15.0010   -4.8419   -5.4992 C   0  0  0  0  0  0  0  0  0  0  0  0
   13.5189   -5.0143   -5.5681 C   0  0  0  0  0  0  0  0  0  0  0  0
   15.7548   -5.9151   -6.2190 C   0  0  0  0  0  0  0  0  0  0  0  0
   16.3314   -6.8605   -5.1999 C   0  0  2  0  0  0  0  0  0  0  0  0
   17.7242   -7.3115   -5.6148 C   0  0  0  0  0  0  0  0  0  0  0  0
   17.8848   -6.9153   -7.0799 C   0  0  0  0  0  0  0  0  0  0  0  0
   17.9739   -8.1119   -7.9341 C   0  0  0  0  0  0  0  0  0  0  0  0
   18.9134   -9.0370   -7.7250 C   0  0  0  0  0  0  0  0  0  0  0  0
   15.5198   -7.9713   -5.1250 O   0  0  0  0  0  0  0  0  0  0  0  0
   16.4259   -6.1436   -3.8494 C   0  0  0  0  0  3  0  0  0  0  0  0
   17.6639   -5.2713   -3.8281 C   0  0  0  0  0  3  0  0  0  0  0  0
   17.3510   -3.8785   -3.3273 C   0  0  2  0  0  0  0  0  0  0  0  0
   16.5411   -3.9002   -2.0586 C   0  0  0  0  0  0  0  0  0  0  0  0
  1  2  1  0
  2  3  1  0
  2  4  1  0
  4  5  1  0
  5  6  1  0
  6  7  1  0
  7  8  1  6
  7  9  1  0
 10  9  1  6
 10 11  1  0
 11 12  2  3
 12 13  1  0
 12 14  1  0
 14 15  1  0
 15 16  1  0
 16 17  1  0
 17 18  1  0
 18 19  2  0
 15 20  1  1
 15 21  1  0
 21 22  1  0
 22 23  1  0
 23 24  1  1
 23 10  1  0
M  RAD  3   9   2  21   2  22   2
M  END
>  <docking_score>  (2) 
-3.952

$$$$

     RDKit          3D

 24 24  0  0  0  0  0  0  0  0999 V2000
    5.6932   11.6114   11.4531 C   0  0  0  0  0  0  0  0  0  0  0  0
    5.1778   10.2087   11.5281 C   0  0  0  0  0  0  0  0  0  0  0  0
    6.3471    9.2779   11.8056 C   0  0  0  0  0  0  0  0  0  0  0  0
    4.5753    9.8190   10.2064 C   0  0  0  0  0  0  0  0  0  0  0  0
    3.8454   11.0548    9.6635 C   0  0  0  0  0  0  0  0  0  0  0  0
    3.8403   10.8884    8.1475 C   0  0  0  0  0  0  0  0  0  0  0  0
    3.9498   12.2484    7.5404 C   0  0  1  0  0  0  0  0  0  0  0  0
    5.0003   13.1175    8.1463 C   0  0  0  0  0  0  0  0  0  0  0  0
    4.0190   12.1277    6.0558 C   0  0  0  0  0  3  0  0  0  0  0  0
    4.4267   10.7519    5.5828 C   0  0  1  0  0  0  0  0  0  0  0  0
    3.8975   10.5744    4.2017 C   0  0  0  0  0  0  0  0  0  0  0  0
    3.8250   11.3313    3.1251 C   0  0  0  0  0  0  0  0  0  0  0  0
    3.1753   10.6312    1.9766 C   0  0  0  0  0  0  0  0  0  0  0  0
    4.2480   12.7294    2.8022 C   0  0  0  0  0  0  0  0  0  0  0  0
    5.7407   12.7455    2.6112 C   0  0  2  0  0  0  0  0  0  0  0  0
    6.3432   14.0108    3.2040 C   0  0  0  0  0  0  0  0  0  0  0  0
    7.4807   14.4214    2.2728 C   0  0  0  0  0  0  0  0  0  0  0  0
    8.5961   15.0009    3.0407 C   0  0  0  0  0  0  0  0  0  0  0  0
    9.7442   14.3370    3.1920 C   0  0  0  0  0  0  0  0  0  0  0  0
    6.0092   12.7285    1.2600 O   0  0  0  0  0  0  0  0  0  0  0  0
    6.3489   11.5303    3.3185 C   0  0  0  0  0  3  0  0  0  0  0  0
    6.4754   11.8211    4.7996 C   0  0  0  0  0  3  0  0  0  0  0  0
    5.9335   10.6825    5.6354 C   0  0  2  0  0  0  0  0  0  0  0  0
    6.4570    9.3462    5.1816 C   0  0  0  0  0  0  0  0  0  0  0  0
  1  2  1  0
  2  3  1  0
  2  4  1  0
  4  5  1  0
  5  6  1  0
  6  7  1  0
  7  8  1  1
  7  9  1  0
 10  9  1  6
 10 11  1  0
 11 12  2  3
 12 13  1  0
 12 14  1  0
 14 15  1  0
 15 16  1  0
 16 17  1  0
 17 18  1  0
 18 19  2  0
 15 20  1  6
 15 21  1  0
 21 22  1  0
 22 23  1  0
 23 24  1  6
 23 10  1  0
M  RAD  3   9   2  21   2  22   2
M  END
>  <docking_score>  (3) 
-3.4020000000000001

$$$$
