
     RDKit          3D

 40 42  0  0  0  0  0  0  0  0999 V2000
    4.7048    6.2165   11.0134 O   0  0  0  0  0  0  0  0  0  0  0  0
    4.3590    7.3486   10.5307 C   0  0  0  0  0  0  0  0  0  0  0  0
    3.8421    7.3712    9.2422 N   0  0  0  0  0  0  0  0  0  0  0  0
    4.2976    7.5135    7.9776 C   0  0  0  0  0  0  0  0  0  0  0  0
    4.3514    8.5102    7.1132 C   0  0  0  0  0  0  0  0  0  0  0  0
    4.9210    8.3060    5.8044 C   0  0  0  0  0  0  0  0  0  0  0  0
    5.5801    8.8264    4.9536 C   0  0  0  0  0  0  0  0  0  0  0  0
    6.3173    9.8586    4.3992 C   0  0  0  0  0  0  0  0  0  0  0  0
    6.3520   10.3038    2.6914 Cl  0  0  0  0  0  0  0  0  0  0  0  0
    7.0818   10.6261    5.1816 C   0  0  0  0  0  0  0  0  0  0  0  0
    7.9050   11.7448    4.7158 C   0  0  0  0  0  0  0  0  0  0  0  0
    4.4786    8.5691   11.2489 N   0  0  0  0  0  0  0  0  0  0  0  0
    3.3759    9.3775   11.7266 C   0  0  0  0  0  0  0  0  0  0  0  0
    3.3503   10.7742   11.2263 C   0  0  0  0  0  0  0  0  0  0  0  0
    4.6299   11.5013   11.3536 C   0  0  0  0  0  0  0  0  0  0  0  0
    5.6524   11.4187   10.2892 C   0  0  1  0  0  0  0  0  0  0  0  0
    6.9400   11.4645   10.7629 O   0  0  0  0  0  0  0  0  0  0  0  0
    5.4108   10.3283    9.3132 C   0  0  0  0  0  0  0  0  0  0  0  0
    4.2582   10.6140    8.4250 C   0  0  0  0  0  0  0  0  0  0  0  0
    3.8178    9.8099    7.4776 C   0  0  0  0  0  0  0  0  0  0  0  0
    2.6520   10.4736    6.8266 C   0  0  0  0  0  0  0  0  0  0  0  0
    2.4020   11.6264    7.3599 C   0  0  0  0  0  0  0  0  0  0  0  0
    3.3962   11.8325    8.4303 C   0  0  2  0  0  0  0  0  0  0  0  0
    4.4321   13.1960    7.9510 Cl  0  0  0  0  0  0  0  0  0  0  0  0
    4.8750   12.2258   12.4220 C   0  0  0  0  0  0  0  0  0  0  0  0
    6.0732   12.9902   12.6871 C   0  0  0  0  0  0  0  0  0  0  0  0
    6.1142   14.2897   12.9632 C   0  0  0  0  0  0  0  0  0  0  0  0
    4.9855   15.1670   13.0475 C   0  0  0  0  0  0  0  0  0  0  0  0
    4.6696   15.7393   14.1828 C   0  0  0  0  0  0  0  0  0  0  0  0
    5.4542   15.4933   15.3642 C   0  0  0  0  0  0  0  0  0  0  0  0
    5.2242   16.0750   16.5301 C   0  0  0  0  0  0  0  0  0  0  0  0
    6.1178   15.7293   17.6833 C   0  0  0  0  0  0  0  0  0  0  0  0
    5.2120   14.5237   18.7169 S   0  0  0  0  0  0  0  0  0  0  0  0
    3.6010   15.1693   19.0467 C   0  0  0  0  0  0  0  0  0  0  0  0
    2.4581   14.6812   18.6161 C   0  0  0  0  0  0  0  0  0  0  0  0
    2.2712   13.4991   17.7712 C   0  0  0  0  0  0  0  0  0  0  0  0
    3.4576   13.2026   16.9347 C   0  0  0  0  0  0  0  0  0  0  0  0
    3.2197   12.6718   15.7170 C   0  0  0  0  0  0  0  0  0  0  0  0
    4.3372   12.3448   14.8170 C   0  0  0  0  0  0  0  0  0  0  0  0
    3.8981   12.2950   13.4448 O   0  0  0  0  0  0  0  0  0  0  0  0
  1  2  2  0
  2  3  1  0
  3  4  1  0
  4  5  2  3
  5  6  1  0
  6  7  2  3
  7  8  1  0
  8  9  1  0
  8 10  2  3
 10 11  1  0
  2 12  1  0
 12 13  1  0
 13 14  1  0
 14 15  1  0
 15 16  1  0
 16 17  1  1
 16 18  1  0
 18 19  1  0
 19 20  2  0
 20 21  1  0
 21 22  2  0
 22 23  1  0
 23 24  1  6
 15 25  2  3
 25 26  1  0
 26 27  2  3
 27 28  1  0
 28 29  2  3
 29 30  1  0
 30 31  2  3
 31 32  1  0
 32 33  1  0
 33 34  1  0
 34 35  2  3
 35 36  1  0
 36 37  1  0
 37 38  2  3
 38 39  1  0
 39 40  1  0
 20  5  1  0
 23 19  1  0
 40 25  1  0
M  END
>  <docking_score>  (1) 
6.4119999999999999

$$$$
