
     RDKit          3D

 11 11  0  0  0  0  0  0  0  0999 V2000
   14.4726   -1.7664   -4.6910 O   0  0  0  0  0  0  0  0  0  0  0  0
   14.9848   -3.0343   -4.6523 C   0  0  0  0  0  0  0  0  0  0  0  0
   16.3143   -3.1865   -4.0210 C   0  0  1  0  0  0  0  0  0  0  0  0
   16.3751   -3.1779   -2.6117 N   0  0  0  0  0  0  0  0  0  0  0  0
   16.5184   -4.4362   -1.9633 C   0  0  0  0  0  3  0  0  0  0  0  0
   17.4998   -5.3588   -2.6440 C   0  0  2  0  0  0  0  0  0  0  0  0
   18.7873   -4.8734   -2.6677 O   0  0  0  0  0  0  0  0  0  0  0  0
   17.0273   -5.5287   -4.0720 C   0  0  1  0  0  0  0  0  0  0  0  0
   15.7288   -6.0030   -4.0950 O   0  0  0  0  0  0  0  0  0  0  0  0
   17.1363   -4.1855   -4.7439 C   0  0  1  0  0  0  0  0  0  0  0  0
   16.7405   -4.2350   -6.0660 O   0  0  0  0  0  0  0  0  0  0  0  0
  1  2  1  0
  3  2  1  1
  3  4  1  0
  4  5  1  0
  5  6  1  0
  6  7  1  6
  6  8  1  0
  8  9  1  1
  8 10  1  0
 10 11  1  6
 10  3  1  0
M  RAD  1   5   2
M  END
>  <docking_score>  (1) 
-3.399

$$$$

     RDKit          3D

 11 11  0  0  0  0  0  0  0  0999 V2000
   16.1841   -4.9328   -2.0790 O   0  0  0  0  0  0  0  0  0  0  0  0
   16.5367   -3.7128   -2.5876 C   0  0  0  0  0  0  0  0  0  0  0  0
   16.5166   -3.5850   -4.0615 C   0  0  1  0  0  0  0  0  0  0  0  0
   15.4764   -4.2319   -4.7610 N   0  0  0  0  0  0  0  0  0  0  0  0
   14.3989   -3.4200   -5.2129 C   0  0  0  0  0  3  0  0  0  0  0  0
   14.8397   -2.0985   -5.7933 C   0  0  2  0  0  0  0  0  0  0  0  0
   15.6258   -2.2243   -6.9159 O   0  0  0  0  0  0  0  0  0  0  0  0
   15.6456   -1.3940   -4.7229 C   0  0  1  0  0  0  0  0  0  0  0  0
   14.8962   -1.2585   -3.5688 O   0  0  0  0  0  0  0  0  0  0  0  0
   16.8861   -2.2129   -4.4826 C   0  0  1  0  0  0  0  0  0  0  0  0
   17.7040   -1.6442   -3.5262 O   0  0  0  0  0  0  0  0  0  0  0  0
  1  2  1  0
  3  2  1  1
  3  4  1  0
  4  5  1  0
  5  6  1  0
  6  7  1  6
  6  8  1  0
  8  9  1  1
  8 10  1  0
 10 11  1  1
 10  3  1  0
M  RAD  1   5   2
M  END
>  <docking_score>  (2) 
-3.3260000000000001

$$$$

     RDKit          3D

 11 11  0  0  0  0  0  0  0  0999 V2000
   18.0638   -1.5472   -2.4833 O   0  0  0  0  0  0  0  0  0  0  0  0
   17.5462   -2.8089   -2.3748 C   0  0  0  0  0  0  0  0  0  0  0  0
   16.1898   -3.0123   -2.9297 C   0  0  1  0  0  0  0  0  0  0  0  0
   15.5211   -1.8866   -3.4546 N   0  0  0  0  0  0  0  0  0  0  0  0
   15.4968   -1.7515   -4.8707 C   0  0  0  0  0  3  0  0  0  0  0  0
   15.2401   -3.0490   -5.5975 C   0  0  2  0  0  0  0  0  0  0  0  0
   14.0124   -3.6041   -5.3175 O   0  0  0  0  0  0  0  0  0  0  0  0
   16.3146   -4.0204   -5.1580 C   0  0  1  0  0  0  0  0  0  0  0  0
   17.5688   -3.4950   -5.4089 O   0  0  0  0  0  0  0  0  0  0  0  0
   16.1097   -4.2824   -3.6894 C   0  0  1  0  0  0  0  0  0  0  0  0
   17.0367   -5.1753   -3.1891 O   0  0  0  0  0  0  0  0  0  0  0  0
  1  2  1  0
  3  2  1  6
  3  4  1  0
  4  5  1  0
  5  6  1  0
  6  7  1  1
  6  8  1  0
  8  9  1  1
  8 10  1  0
 10 11  1  1
 10  3  1  0
M  RAD  1   5   2
M  END
>  <docking_score>  (3) 
-3.2879999999999998

$$$$
