
     RDKit          3D

 22 24  0  0  0  0  0  0  0  0999 V2000
    9.1324   -2.8060   22.1426 C   0  0  0  0  0  0  0  0  0  0  0  0
    8.2163   -3.6135   23.0247 C   0  0  1  0  0  0  0  0  0  0  0  0
    9.0003   -4.5509   23.8075 N   0  0  0  0  0  2  0  0  0  0  0  0
    7.3861   -2.6991   23.9023 C   0  0  0  0  0  3  0  0  0  0  0  0
    7.5959   -1.2864   23.4321 C   0  0  0  0  0  0  0  0  0  0  0  0
    7.2548   -0.2891   24.4757 C   0  0  0  0  0  0  0  0  0  0  0  0
    7.7931    0.9795   24.4482 C   0  0  0  0  0  0  0  0  0  0  0  0
    7.4105    1.8331   25.4676 C   0  0  0  0  0  0  0  0  0  0  0  0
    6.5488    1.4843   26.4696 C   0  0  0  0  0  0  0  0  0  0  0  0
    6.1894    2.3923   27.4877 O   0  0  0  0  0  0  0  0  0  0  0  0
    6.0199    0.2135   26.4827 C   0  0  0  0  0  0  0  0  0  0  0  0
    6.3838   -0.6570   25.4796 C   0  0  0  0  0  0  0  0  0  0  0  0
    8.5368   -1.9288   21.3425 C   0  0  0  0  0  0  0  0  0  0  0  0
    9.2445   -1.0434   20.4048 C   0  0  1  0  0  0  0  0  0  0  0  0
    8.8989   -1.1903   18.9976 C   0  0  0  0  0  3  0  0  0  0  0  0
    8.7885    0.0252   18.2172 C   0  0  0  0  0  0  0  0  0  0  0  0
    8.9765    1.2382   18.6860 C   0  0  0  0  0  0  0  0  0  0  0  0
    8.8398    2.3130   17.8326 O   0  0  0  0  0  0  0  0  0  0  0  0
    9.3196    1.3511   20.0922 C   0  0  0  0  0  0  0  0  0  0  0  0
    9.4419    0.3116   20.8761 C   0  0  0  0  0  0  0  0  0  0  0  0
    9.8728    0.5129   22.6262 S   0  0  0  0  0  0  0  0  0  0  0  0
    8.6907    1.4633   23.4730 N   0  0  0  0  0  0  0  0  0  0  0  0
  1  2  1  0
  2  3  1  1
  2  4  1  0
  4  5  1  0
  5  6  1  0
  6  7  2  0
  7  8  1  0
  8  9  2  0
  9 10  1  0
  9 11  1  0
 11 12  2  0
  1 13  2  3
 13 14  1  0
 14 15  1  6
 15 16  1  0
 16 17  2  0
 17 18  1  0
 17 19  1  0
 19 20  2  0
 20 21  1  0
 21 22  1  0
 12  6  1  0
 22  7  1  0
 20 14  1  0
M  RAD  3   3   2   4   2  15   2
M  END
>  <docking_score>  (1) 
-7.7430000000000003

$$$$

     RDKit          3D

 22 24  0  0  0  0  0  0  0  0999 V2000
    8.4593   -3.1954   21.5954 C   0  0  0  0  0  0  0  0  0  0  0  0
    8.8961   -1.8398   21.1044 C   0  0  1  0  0  0  0  0  0  0  0  0
    8.2482   -1.5516   19.8382 N   0  0  0  0  0  2  0  0  0  0  0  0
    8.5999   -0.7798   22.1457 C   0  0  0  0  0  3  0  0  0  0  0  0
    8.1774   -1.4750   23.4102 C   0  0  0  0  0  0  0  0  0  0  0  0
    7.4065   -0.5846   24.3117 C   0  0  0  0  0  0  0  0  0  0  0  0
    6.5469   -1.1029   25.2565 C   0  0  0  0  0  0  0  0  0  0  0  0
    5.8758   -0.1869   26.0469 C   0  0  0  0  0  0  0  0  0  0  0  0
    6.0232    1.1673   25.9355 C   0  0  0  0  0  0  0  0  0  0  0  0
    5.3152    2.0609   26.7664 O   0  0  0  0  0  0  0  0  0  0  0  0
    6.8855    1.6690   24.9870 C   0  0  0  0  0  0  0  0  0  0  0  0
    7.5667    0.7794   24.1864 C   0  0  0  0  0  0  0  0  0  0  0  0
    9.0087   -3.6003   22.7349 C   0  0  0  0  0  0  0  0  0  0  0  0
    8.7209   -4.8876   23.3863 C   0  0  1  0  0  0  0  0  0  0  0  0
    9.8567   -5.7789   23.5775 C   0  0  0  0  0  3  0  0  0  0  0  0
    9.9209   -6.5030   24.8305 C   0  0  0  0  0  0  0  0  0  0  0  0
    9.0347   -6.4123   25.7964 C   0  0  0  0  0  0  0  0  0  0  0  0
    9.2157   -7.1590   26.9417 O   0  0  0  0  0  0  0  0  0  0  0  0
    7.9145   -5.5155   25.5754 C   0  0  0  0  0  0  0  0  0  0  0  0
    7.7709   -4.8203   24.4773 C   0  0  0  0  0  0  0  0  0  0  0  0
    6.3502   -3.7149   24.2560 S   0  0  0  0  0  0  0  0  0  0  0  0
    6.3053   -2.4760   25.4728 N   0  0  0  0  0  0  0  0  0  0  0  0
  1  2  1  0
  2  3  1  6
  2  4  1  0
  4  5  1  0
  5  6  1  0
  6  7  2  0
  7  8  1  0
  8  9  2  0
  9 10  1  0
  9 11  1  0
 11 12  2  0
  1 13  2  3
 13 14  1  0
 14 15  1  1
 15 16  1  0
 16 17  2  0
 17 18  1  0
 17 19  1  0
 19 20  2  0
 20 21  1  0
 21 22  1  0
 12  6  1  0
 22  7  1  0
 20 14  1  0
M  RAD  3   3   2   4   2  15   2
M  END
>  <docking_score>  (2) 
-7.3579999999999997

$$$$

     RDKit          3D

 22 24  0  0  0  0  0  0  0  0999 V2000
    8.2354   -0.6750   22.9512 C   0  0  0  0  0  0  0  0  0  0  0  0
    7.7593    0.2671   21.8763 C   0  0  1  0  0  0  0  0  0  0  0  0
    8.4210    1.5496   22.0288 N   0  0  0  0  0  2  0  0  0  0  0  0
    7.9963   -0.3323   20.5051 C   0  0  0  0  0  3  0  0  0  0  0  0
    8.4188   -1.7635   20.6897 C   0  0  0  0  0  0  0  0  0  0  0  0
    9.1390   -2.2950   19.5070 C   0  0  0  0  0  0  0  0  0  0  0  0
    9.9982   -3.3668   19.6216 C   0  0  0  0  0  0  0  0  0  0  0  0
   10.6199   -3.7848   18.4584 C   0  0  0  0  0  0  0  0  0  0  0  0
   10.4255   -3.1997   17.2386 C   0  0  0  0  0  0  0  0  0  0  0  0
   11.0840   -3.6637   16.0804 O   0  0  0  0  0  0  0  0  0  0  0  0
    9.5642   -2.1302   17.1410 C   0  0  0  0  0  0  0  0  0  0  0  0
    8.9317   -1.6933   18.2835 C   0  0  0  0  0  0  0  0  0  0  0  0
    7.6788   -1.8810   22.9486 C   0  0  0  0  0  0  0  0  0  0  0  0
    8.0004   -2.9480   23.9089 C   0  0  1  0  0  0  0  0  0  0  0  0
    6.8943   -3.4366   24.7206 C   0  0  0  0  0  3  0  0  0  0  0  0
    6.8319   -4.8646   24.9562 C   0  0  0  0  0  0  0  0  0  0  0  0
    7.6951   -5.7404   24.4931 C   0  0  0  0  0  0  0  0  0  0  0  0
    7.5189   -7.0750   24.7928 O   0  0  0  0  0  0  0  0  0  0  0  0
    8.7860   -5.2219   23.6876 C   0  0  0  0  0  0  0  0  0  0  0  0
    8.9258   -3.9494   23.4209 C   0  0  0  0  0  0  0  0  0  0  0  0
   10.3094   -3.3584   22.4082 S   0  0  0  0  0  0  0  0  0  0  0  0
   10.2852   -4.0572   20.8181 N   0  0  0  0  0  0  0  0  0  0  0  0
  1  2  1  0
  2  3  1  6
  2  4  1  0
  4  5  1  0
  5  6  1  0
  6  7  2  0
  7  8  1  0
  8  9  2  0
  9 10  1  0
  9 11  1  0
 11 12  2  0
  1 13  2  3
 13 14  1  0
 14 15  1  6
 15 16  1  0
 16 17  2  0
 17 18  1  0
 17 19  1  0
 19 20  2  0
 20 21  1  0
 21 22  1  0
 12  6  1  0
 22  7  1  0
 20 14  1  0
M  RAD  3   3   2   4   2  15   2
M  END
>  <docking_score>  (3) 
-6.907

$$$$
