
     RDKit          3D

 27 26  0  0  0  0  0  0  0  0999 V2000
    6.3677   11.0639    3.9089 C   0  0  0  0  0  0  0  0  0  0  0  0
    5.9628   10.1054    4.9785 C   0  0  0  0  0  0  0  0  0  0  0  0
    5.5364    8.7619    4.4504 C   0  0  0  0  0  0  0  0  0  0  0  0
    4.9596   10.6907    5.9485 C   0  0  0  0  0  0  0  0  0  0  0  0
    4.8452   12.1675    5.6242 C   0  0  0  0  0  0  0  0  0  0  0  0
    4.2886   12.9732    6.7571 C   0  0  0  0  0  0  0  0  0  0  0  0
    3.9065   14.3506    6.3205 C   0  0  1  0  0  0  0  0  0  0  0  0
    2.6426   14.3427    5.5177 C   0  0  0  0  0  0  0  0  0  0  0  0
    3.8785   15.3413    7.4603 C   0  0  0  0  0  3  0  0  0  0  0  0
    3.5420   14.7056    8.7738 C   0  0  0  0  0  0  0  0  0  0  0  0
    4.7323   14.1113    9.4776 C   0  0  0  0  0  0  0  0  0  0  0  0
    5.5253   15.1701   10.1980 C   0  0  2  0  0  0  0  0  0  0  0  0
    6.5330   15.7725    9.2722 C   0  0  0  0  0  0  0  0  0  0  0  0
    6.1255   14.5613   11.4298 C   0  0  0  0  0  3  0  0  0  0  0  0
    6.3631   13.0767   11.2525 C   0  0  0  0  0  0  0  0  0  0  0  0
    6.2603   12.4137   12.5903 C   0  0  0  0  0  0  0  0  0  0  0  0
    5.8361   13.7234   13.8569 Si  0  0  0  0  0  4  0  0  0  0  0  0
    7.1843   14.6012   14.7894 C   0  0  0  0  0  0  0  0  0  0  0  0
    8.4143   14.7472   13.9238 C   0  0  0  0  0  0  0  0  0  0  0  0
    9.6283   14.5077   14.7939 C   0  0  2  0  0  0  0  0  0  0  0  0
   10.0669   15.6347   15.4469 O   0  0  0  0  0  0  0  0  0  0  0  0
   10.7403   13.8153   14.0254 C   0  0  0  0  0  0  0  0  0  0  0  0
   11.3371   14.7587   13.0161 C   0  0  2  0  0  0  0  0  0  0  0  0
   11.0637   14.2208   11.6257 C   0  0  0  0  0  0  0  0  0  0  0  0
   12.8417   14.8326   13.2427 C   0  0  0  0  0  0  0  0  0  0  0  0
   13.4334   13.9745   12.2991 O   0  0  0  0  0  0  0  0  0  0  0  0
    4.4174   14.2567   13.9055 O   0  0  0  0  0  0  0  0  0  0  0  0
  1  2  1  0
  2  3  1  0
  2  4  1  0
  4  5  1  0
  5  6  1  0
  6  7  1  0
  7  8  1  1
  7  9  1  0
  9 10  1  0
 10 11  1  0
 11 12  1  0
 12 13  1  6
 12 14  1  0
 14 15  1  0
 15 16  1  0
 16 17  1  0
 17 18  1  0
 18 19  1  0
 19 20  1  0
 20 21  1  6
 20 22  1  0
 22 23  1  0
 23 24  1  6
 23 25  1  0
 25 26  1  0
 17 27  2  0
M  RAD  2   9   2  14   2
M  END
>  <docking_score>  (1) 
-2.1499999999999999

$$$$

     RDKit          3D

 27 26  0  0  0  0  0  0  0  0999 V2000
    3.8346   10.7427    2.0718 C   0  0  0  0  0  0  0  0  0  0  0  0
    3.3552   11.4864    3.2734 C   0  0  0  0  0  0  0  0  0  0  0  0
    2.3490   12.5592    2.9533 C   0  0  0  0  0  0  0  0  0  0  0  0
    4.4838   11.9932    4.1447 C   0  0  0  0  0  0  0  0  0  0  0  0
    5.3206   12.9198    3.2844 C   0  0  0  0  0  0  0  0  0  0  0  0
    5.6997   14.1865    3.9874 C   0  0  0  0  0  0  0  0  0  0  0  0
    5.3757   14.1279    5.4453 C   0  0  1  0  0  0  0  0  0  0  0  0
    6.1899   15.1094    6.2299 C   0  0  0  0  0  0  0  0  0  0  0  0
    3.8944   14.2311    5.7223 C   0  0  0  0  0  3  0  0  0  0  0  0
    3.4905   13.5363    6.9859 C   0  0  0  0  0  0  0  0  0  0  0  0
    4.6332   13.3052    7.9378 C   0  0  0  0  0  0  0  0  0  0  0  0
    4.1991   13.4931    9.3679 C   0  0  2  0  0  0  0  0  0  0  0  0
    4.9023   12.5108   10.2488 C   0  0  0  0  0  0  0  0  0  0  0  0
    2.7040   13.3965    9.4293 C   0  0  0  0  0  3  0  0  0  0  0  0
    2.2577   12.3986   10.4765 C   0  0  0  0  0  0  0  0  0  0  0  0
    3.3635   12.2222   11.4696 C   0  0  0  0  0  0  0  0  0  0  0  0
    3.1659   10.5415   12.2668 Si  0  0  0  0  0  4  0  0  0  0  0  0
    3.7102   10.2641   14.0231 C   0  0  0  0  0  0  0  0  0  0  0  0
    5.0087   10.9886   14.2927 C   0  0  0  0  0  0  0  0  0  0  0  0
    4.6777   12.3116   14.9472 C   0  0  2  0  0  0  0  0  0  0  0  0
    3.4146   12.3564   15.4871 O   0  0  0  0  0  0  0  0  0  0  0  0
    4.9505   13.4805   14.0167 C   0  0  0  0  0  0  0  0  0  0  0  0
    5.6749   14.5728   14.7565 C   0  0  2  0  0  0  0  0  0  0  0  0
    4.6623   15.3859   15.5380 C   0  0  0  0  0  0  0  0  0  0  0  0
    6.3725   15.4722   13.7442 C   0  0  0  0  0  0  0  0  0  0  0  0
    5.3630   16.0391   12.9466 O   0  0  0  0  0  0  0  0  0  0  0  0
    2.3065    9.5028   11.5725 O   0  0  0  0  0  0  0  0  0  0  0  0
  1  2  1  0
  2  3  1  0
  2  4  1  0
  4  5  1  0
  5  6  1  0
  6  7  1  0
  7  8  1  1
  7  9  1  0
  9 10  1  0
 10 11  1  0
 11 12  1  0
 12 13  1  1
 12 14  1  0
 14 15  1  0
 15 16  1  0
 16 17  1  0
 17 18  1  0
 18 19  1  0
 19 20  1  0
 20 21  1  6
 20 22  1  0
 22 23  1  0
 23 24  1  6
 23 25  1  0
 25 26  1  0
 17 27  2  0
M  RAD  2   9   2  14   2
M  END
>  <docking_score>  (2) 
0.13100000000000001

$$$$
