
     RDKit          3D

 22 21  0  0  0  0  0  0  0  0999 V2000
   13.7133    0.1286   -3.9132 C   0  0  0  0  0  0  0  0  0  0  0  0
   13.8588    0.1900   -5.2918 O   0  0  0  0  0  0  0  0  0  0  0  0
   15.0115   -0.3079   -5.7569 C   0  0  0  0  0  3  0  0  0  0  0  0
   15.7883   -1.1022   -5.0547 O   0  0  0  0  0  0  0  0  0  0  0  0
   15.7216   -2.4924   -5.1972 C   0  0  2  0  0  0  0  0  0  0  0  0
   15.7240   -2.9458   -3.6777 C   0  0  0  0  0  0  0  0  0  0  0  0
   16.4315   -1.9485   -3.0327 O   0  0  0  0  0  0  0  0  0  0  0  0
   17.5048   -2.1213   -2.2572 C   0  0  0  0  0  0  0  0  0  0  0  0
   18.3639   -1.2917   -2.0057 O   0  0  0  0  0  0  0  0  0  0  0  0
   16.8191   -2.9664   -5.8400 O   0  0  0  0  0  0  0  0  0  0  0  0
   16.5502   -3.0437   -7.1333 N   0  0  0  0  0  0  0  0  0  0  0  0
   15.0243   -3.5269   -7.6454 S   0  0  0  0  0  0  0  0  0  0  0  0
   14.9804   -5.1975   -7.8829 O   0  0  0  0  0  0  0  0  0  0  0  0
   13.6958   -5.6701   -7.4576 C   0  0  0  0  0  0  0  0  0  0  0  0
   13.8613   -5.2182   -5.9389 C   0  0  0  0  0  0  0  0  0  0  0  0
   14.4317   -6.3832   -5.2349 C   0  0  0  0  0  0  0  0  0  0  0  0
   15.7666   -6.1952   -4.9922 O   0  0  0  0  0  0  0  0  0  0  0  0
   16.6996   -7.0256   -5.5144 C   0  0  0  0  0  3  0  0  0  0  0  0
   17.6884   -7.1322   -4.4634 O   0  0  0  0  0  0  0  0  0  0  0  0
   17.9799   -5.9480   -3.9128 C   0  0  0  0  0  0  0  0  0  0  0  0
   19.2590   -5.7308   -3.3594 C   0  0  0  0  0  0  0  0  0  0  0  0
   19.7910   -4.9132   -2.5394 C   0  0  0  0  0  0  0  0  0  0  0  0
  1  2  1  0
  2  3  1  0
  3  4  1  0
  4  5  1  0
  5  6  1  1
  6  7  1  0
  7  8  1  0
  8  9  2  0
  5 10  1  0
 10 11  1  0
 11 12  1  0
 12 13  1  0
 13 14  1  0
 14 15  1  0
 15 16  1  0
 16 17  1  0
 17 18  1  0
 18 19  1  0
 19 20  1  0
 20 21  1  0
 21 22  2  0
M  RAD  2   3   2  18   2
M  END
>  <docking_score>  (1) 
-3.2589999999999999

$$$$

     RDKit          3D

 22 21  0  0  0  0  0  0  0  0999 V2000
   13.8758   -0.5156   -4.7131 C   0  0  0  0  0  0  0  0  0  0  0  0
   14.3540   -1.8114   -4.8464 O   0  0  0  0  0  0  0  0  0  0  0  0
   15.4965   -1.9195   -5.5363 C   0  0  0  0  0  3  0  0  0  0  0  0
   16.5636   -2.5296   -5.0712 O   0  0  0  0  0  0  0  0  0  0  0  0
   17.8101   -2.3814   -5.6890 C   0  0  2  0  0  0  0  0  0  0  0  0
   17.9313   -0.8011   -5.7351 C   0  0  0  0  0  0  0  0  0  0  0  0
   19.2187   -0.5520   -5.2973 O   0  0  0  0  0  0  0  0  0  0  0  0
   19.7594   -0.9867   -4.1561 C   0  0  0  0  0  0  0  0  0  0  0  0
   19.5580   -0.5415   -3.0378 O   0  0  0  0  0  0  0  0  0  0  0  0
   17.7926   -2.8971   -6.9445 O   0  0  0  0  0  0  0  0  0  0  0  0
   17.9383   -4.2098   -6.8636 N   0  0  0  0  0  0  0  0  0  0  0  0
   16.9364   -5.2216   -7.7560 S   0  0  0  0  0  0  0  0  0  0  0  0
   16.3197   -6.4544   -6.7817 O   0  0  0  0  0  0  0  0  0  0  0  0
   17.2995   -7.4986   -6.7181 C   0  0  0  0  0  0  0  0  0  0  0  0
   17.5406   -7.3871   -5.1472 C   0  0  0  0  0  0  0  0  0  0  0  0
   16.3979   -6.6154   -4.6210 C   0  0  0  0  0  0  0  0  0  0  0  0
   16.8194   -5.6991   -3.6941 O   0  0  0  0  0  0  0  0  0  0  0  0
   18.0066   -5.8377   -3.0585 C   0  0  0  0  0  3  0  0  0  0  0  0
   18.5838   -4.5122   -3.1201 O   0  0  0  0  0  0  0  0  0  0  0  0
   18.3883   -3.8160   -1.9943 C   0  0  0  0  0  0  0  0  0  0  0  0
   19.4945   -3.4444   -1.2019 C   0  0  0  0  0  0  0  0  0  0  0  0
   20.7500   -3.6621   -1.1969 C   0  0  0  0  0  0  0  0  0  0  0  0
  1  2  1  0
  2  3  1  0
  3  4  1  0
  4  5  1  0
  5  6  1  6
  6  7  1  0
  7  8  1  0
  8  9  2  0
  5 10  1  0
 10 11  1  0
 11 12  1  0
 12 13  1  0
 13 14  1  0
 14 15  1  0
 15 16  1  0
 16 17  1  0
 17 18  1  0
 18 19  1  0
 19 20  1  0
 20 21  1  0
 21 22  2  0
M  RAD  2   3   2  18   2
M  END
>  <docking_score>  (2) 
-2.8130000000000002

$$$$

     RDKit          3D

 22 21  0  0  0  0  0  0  0  0999 V2000
   18.5203   -5.6654   -3.8965 C   0  0  0  0  0  0  0  0  0  0  0  0
   18.2131   -4.9725   -2.7342 O   0  0  0  0  0  0  0  0  0  0  0  0
   16.9104   -4.9436   -2.4261 C   0  0  0  0  0  3  0  0  0  0  0  0
   16.2241   -3.8296   -2.3025 O   0  0  0  0  0  0  0  0  0  0  0  0
   16.4796   -2.7261   -3.1238 C   0  0  2  0  0  0  0  0  0  0  0  0
   16.9054   -1.6459   -2.0438 C   0  0  0  0  0  0  0  0  0  0  0  0
   18.2870   -1.6555   -2.0886 O   0  0  0  0  0  0  0  0  0  0  0  0
   19.0394   -1.5198   -3.1836 C   0  0  0  0  0  0  0  0  0  0  0  0
   19.5665   -0.4942   -3.5837 O   0  0  0  0  0  0  0  0  0  0  0  0
   15.3539   -2.3354   -3.7738 O   0  0  0  0  0  0  0  0  0  0  0  0
   15.6775   -1.4025   -4.6548 N   0  0  0  0  0  0  0  0  0  0  0  0
   15.2690   -1.5991   -6.2730 S   0  0  0  0  0  0  0  0  0  0  0  0
   14.5338   -3.0982   -6.5207 O   0  0  0  0  0  0  0  0  0  0  0  0
   15.2143   -3.7505   -7.6004 C   0  0  0  0  0  0  0  0  0  0  0  0
   16.4361   -4.2703   -6.7199 C   0  0  0  0  0  0  0  0  0  0  0  0
   17.4103   -4.8286   -7.6777 C   0  0  0  0  0  0  0  0  0  0  0  0
   17.4133   -6.1972   -7.6216 O   0  0  0  0  0  0  0  0  0  0  0  0
   17.5593   -6.9461   -8.7399 C   0  0  0  0  0  3  0  0  0  0  0  0
   18.2165   -8.1445   -8.2649 O   0  0  0  0  0  0  0  0  0  0  0  0
   18.4874   -8.0951   -6.9555 C   0  0  0  0  0  0  0  0  0  0  0  0
   17.9986   -9.1065   -6.1024 C   0  0  0  0  0  0  0  0  0  0  0  0
   16.9249   -9.3405   -5.4573 C   0  0  0  0  0  0  0  0  0  0  0  0
  1  2  1  0
  2  3  1  0
  3  4  1  0
  4  5  1  0
  5  6  1  1
  6  7  1  0
  7  8  1  0
  8  9  2  0
  5 10  1  0
 10 11  1  0
 11 12  1  0
 12 13  1  0
 13 14  1  0
 14 15  1  0
 15 16  1  0
 16 17  1  0
 17 18  1  0
 18 19  1  0
 19 20  1  0
 20 21  1  0
 21 22  2  0
M  RAD  2   3   2  18   2
M  END
>  <docking_score>  (3) 
-2.7090000000000001

$$$$
