
     RDKit          3D

 43 43  0  0  0  0  0  0  0  0999 V2000
   17.8994   -7.5195   -6.7390 C   0  0  0  0  0  0  0  0  0  0  0  0
   18.3795   -6.6998   -7.9173 C   0  0  1  0  0  0  0  0  0  0  0  0
   19.4276   -7.4973   -8.6355 C   0  0  0  0  0  0  0  0  0  0  0  0
   17.2605   -6.4637   -8.7288 O   0  0  0  0  0  0  0  0  0  0  0  0
   18.9340   -5.3731   -7.4592 C   0  0  0  0  0  3  0  0  0  0  0  0
   19.7990   -5.8166   -5.7368 C   0  0  0  0  0  0  0  0  0  0  0  0
   19.3593   -4.6662   -5.3052 C   0  0  0  0  0  0  0  0  0  0  0  0
   18.9404   -3.6278   -4.9135 C   0  0  0  0  0  0  0  0  0  0  0  0
   18.6908   -3.0010   -4.6818 C   0  0  0  0  0  0  0  0  0  0  0  0
   17.0722   -3.9364   -3.4576 C   0  0  0  0  0  0  0  0  0  0  0  0
   17.9410   -4.6909   -2.5027 C   0  0  1  0  0  0  0  0  0  0  0  0
   19.0827   -3.8770   -1.9431 C   0  0  0  0  0  3  0  0  0  0  0  0
   20.2683   -3.8022   -2.8680 C   0  0  2  0  0  0  0  0  0  0  0  0
   21.3683   -4.3765   -2.2333 O   0  0  0  0  0  0  0  0  0  0  0  0
   20.5483   -2.3246   -3.0630 C   0  0  0  0  0  0  0  0  0  0  0  0
   19.6196   -1.4999   -2.1876 C   0  0  0  0  0  3  0  0  0  0  0  0
   20.4477   -0.7197   -1.1766 C   0  0  0  0  0  0  0  0  0  0  0  0
   18.8340   -0.5698   -3.0371 C   0  0  0  0  0  3  0  0  0  0  0  0
   17.3876   -0.5870   -2.8804 C   0  0  0  0  0  0  0  0  0  0  0  0
   16.6162    0.1316   -3.8919 C   0  0  2  0  0  0  0  0  0  0  0  0
   15.1725    0.0476   -3.9797 C   0  0  0  0  0  2  0  0  0  0  0  0
   17.4291    0.2769   -5.4762 S   0  0  0  0  0  0  0  0  0  0  0  0
   17.8479   -1.2648   -6.1673 C   0  0  0  0  0  0  0  0  0  0  0  0
   16.6534   -2.1095   -6.5420 C   0  0  1  0  0  0  0  0  0  0  0  0
   15.5048   -0.9849   -6.5156 C   0  0  0  0  0  0  0  0  0  0  0  0
   14.3113   -1.3468   -5.2564 S   0  0  0  0  0  0  0  0  0  0  0  0
   12.7743   -0.6887   -5.6605 O   0  0  0  0  0  0  0  0  0  0  0  0
   11.7747   -1.5104   -5.1460 C   0  0  0  0  0  0  0  0  0  0  0  0
   10.9126   -0.7798   -4.3627 F   0  0  0  0  0  0  0  0  0  0  0  0
   16.7156   -2.3600   -8.0479 C   0  0  0  0  0  0  0  0  0  0  0  0
   15.0964   -2.8686   -8.7302 P   0  0  0  0  0  0  0  0  0  0  0  0
   13.9084   -1.5889   -8.4982 O   0  0  0  0  0  0  0  0  0  0  0  0
   17.1565   -5.4007   -1.3934 C   0  0  0  0  0  0  0  0  0  0  0  0
   16.9557   -6.7067   -1.7767 O   0  0  0  0  0  0  0  0  0  0  0  0
   18.0655   -7.1632   -2.9988 S   0  0  0  0  0  0  0  0  0  0  0  0
   17.2845   -7.3751   -4.5747 C   0  0  1  0  0  0  0  0  0  0  0  0
   15.8484   -7.1873   -4.6828 C   0  0  0  0  0  0  0  0  0  0  0  0
   15.1894   -8.1589   -5.5726 C   0  0  0  0  0  0  0  0  0  0  0  0
   14.7834   -7.5413   -6.8690 C   0  0  0  0  0  0  0  0  0  0  0  0
   14.9218   -6.0397   -6.7891 C   0  0  0  0  0  0  0  0  0  0  0  0
   13.5870   -5.4492   -6.5516 C   0  0  0  0  0  0  0  0  0  0  0  0
   13.4451   -4.3345   -6.0581 O   0  0  0  0  0  0  0  0  0  0  0  0
   17.9308   -6.7206   -5.5984 O   0  0  0  0  0  0  0  0  0  0  0  0
  1  2  1  0
  2  3  1  6
  2  4  1  0
  2  5  1  0
  5  6  1  0
  6  7  1  0
  7  8  3  0
  8  9  1  0
  9 10  1  0
 10 11  1  0
 11 12  1  1
 12 13  1  0
 13 14  1  1
 13 15  1  0
 15 16  1  0
 16 17  1  0
 16 18  1  0
 18 19  1  0
 19 20  1  0
 20 21  1  6
 20 22  1  0
 22 23  1  0
 24 23  1  6
 24 25  1  0
 25 26  1  0
 26 27  1  0
 27 28  1  0
 28 29  1  0
 24 30  1  0
 30 31  1  0
 31 32  1  0
 11 33  1  0
 33 34  1  0
 34 35  1  0
 35 36  1  0
 36 37  1  1
 37 38  1  0
 38 39  1  0
 39 40  1  0
 40 41  1  0
 41 42  2  0
 36 43  1  0
 43  1  1  0
M  RAD  5   5   2  12   2  16   2  18   2  21   3
M  END
>  <docking_score>  (1) 
8.5440000000000005

$$$$
