
     RDKit          3D

 25 26  0  0  0  0  0  0  0  0999 V2000
   15.1640   -1.5382   -3.9431 C   0  0  0  0  0  0  0  0  0  0  0  0
   14.6108   -1.2831   -5.3268 C   0  0  0  0  0  0  0  0  0  0  0  0
   13.8526    0.0438   -5.3567 C   0  0  0  0  0  0  0  0  0  0  0  0
   15.7517   -1.1809   -6.3179 C   0  0  0  0  0  0  0  0  0  0  0  0
   17.0647   -1.1722   -5.5488 C   0  0  0  0  0  0  0  0  0  0  0  0
   18.2077   -1.6576   -6.4025 C   0  0  0  0  0  0  0  0  0  0  0  0
   19.4546   -0.8461   -6.2283 C   0  0  1  0  0  0  0  0  0  0  0  0
   19.3165    0.0661   -5.0385 C   0  0  0  0  0  0  0  0  0  0  0  0
   20.6276   -1.7593   -6.0435 C   0  0  0  0  0  3  0  0  0  0  0  0
   20.1768   -3.1170   -5.4888 C   0  0  0  0  0  0  0  0  0  0  0  0
   20.1157   -2.9904   -3.9933 C   0  0  0  0  0  0  0  0  0  0  0  0
   20.0965   -4.3318   -3.3451 C   0  0  0  0  0  3  0  0  0  0  0  0
   18.9621   -4.3332   -2.3021 C   0  0  1  0  0  0  0  0  0  0  0  0
   19.4322   -3.3139   -1.2698 C   0  0  0  0  0  2  0  0  0  0  0  0
   17.7001   -3.8901   -2.9094 C   0  0  0  0  0  0  0  0  0  0  0  0
   16.7899   -4.8290   -3.4649 C   0  0  0  0  0  0  0  0  0  0  0  0
   17.1141   -5.8310   -4.4872 C   0  0  1  0  0  0  0  0  0  0  0  0
   15.9230   -6.8182   -4.6461 C   0  0  0  0  0  3  0  0  0  0  0  0
   16.5247   -7.9632   -5.4194 C   0  0  0  0  0  0  0  0  0  0  0  0
   17.2188   -7.6951   -6.4913 C   0  0  0  0  0  0  0  0  0  0  0  0
   17.7868   -8.7270   -7.2268 O   0  0  0  0  0  0  0  0  0  0  0  0
   17.4116   -6.3169   -6.9368 C   0  0  1  0  0  0  0  0  0  0  0  0
   16.2182   -5.6801   -7.6168 C   0  0  0  0  0  0  0  0  0  0  0  0
   17.3473   -5.2707   -5.8841 C   0  0  1  0  0  0  0  0  0  0  0  0
   16.0968   -4.6779   -6.4973 C   0  0  0  0  0  3  0  0  0  0  0  0
  1  2  1  0
  2  3  1  0
  2  4  1  0
  4  5  1  0
  5  6  1  0
  6  7  1  0
  7  8  1  1
  7  9  1  0
  9 10  1  0
 10 11  1  0
 11 12  1  0
 12 13  1  0
 13 14  1  1
 13 15  1  0
 15 16  1  0
 17 16  1  1
 17 18  1  0
 18 19  1  0
 19 20  2  0
 20 21  1  0
 20 22  1  0
 22 23  1  6
 17 24  1  0
 24 25  1  6
 24 22  1  0
 25 23  1  0
M  RAD  5   9   2  12   2  14   3  18   2  25   2
M  END
>  <docking_score>  (1) 
-4.0700000000000003

$$$$

     RDKit          3D

 25 26  0  0  0  0  0  0  0  0999 V2000
   15.2841   -4.8078   -4.9578 C   0  0  0  0  0  0  0  0  0  0  0  0
   14.6096   -3.9460   -6.0010 C   0  0  0  0  0  0  0  0  0  0  0  0
   13.6255   -2.9838   -5.3359 C   0  0  0  0  0  0  0  0  0  0  0  0
   15.6502   -3.1123   -6.7196 C   0  0  0  0  0  0  0  0  0  0  0  0
   15.4138   -1.6465   -6.3865 C   0  0  0  0  0  0  0  0  0  0  0  0
   16.1530   -1.2378   -5.1385 C   0  0  0  0  0  0  0  0  0  0  0  0
   17.5590   -1.7527   -5.0954 C   0  0  1  0  0  0  0  0  0  0  0  0
   18.4795   -0.8056   -5.8182 C   0  0  0  0  0  0  0  0  0  0  0  0
   17.9949   -1.9073   -3.6706 C   0  0  0  0  0  3  0  0  0  0  0  0
   16.7978   -2.2371   -2.7691 C   0  0  0  0  0  0  0  0  0  0  0  0
   17.1455   -3.4809   -2.0021 C   0  0  0  0  0  0  0  0  0  0  0  0
   18.5908   -3.4976   -1.6404 C   0  0  0  0  0  3  0  0  0  0  0  0
   19.3254   -4.3637   -2.6820 C   0  0  1  0  0  0  0  0  0  0  0  0
   20.7541   -4.4163   -2.1511 C   0  0  0  0  0  2  0  0  0  0  0  0
   18.7541   -5.7162   -2.7262 C   0  0  0  0  0  0  0  0  0  0  0  0
   18.9934   -6.5723   -3.8345 C   0  0  0  0  0  0  0  0  0  0  0  0
   18.2891   -6.5211   -5.1212 C   0  0  1  0  0  0  0  0  0  0  0  0
   19.0816   -5.6243   -6.1143 C   0  0  0  0  0  3  0  0  0  0  0  0
   18.0872   -5.3690   -7.2175 C   0  0  0  0  0  0  0  0  0  0  0  0
   17.4416   -6.3844   -7.7222 C   0  0  0  0  0  0  0  0  0  0  0  0
   16.5183   -6.1838   -8.7399 O   0  0  0  0  0  0  0  0  0  0  0  0
   17.6738   -7.7413   -7.2325 C   0  0  1  0  0  0  0  0  0  0  0  0
   18.9564   -8.3926   -7.7042 C   0  0  0  0  0  0  0  0  0  0  0  0
   18.1494   -7.8618   -5.8303 C   0  0  1  0  0  0  0  0  0  0  0  0
   19.4766   -8.4262   -6.2897 C   0  0  0  0  0  3  0  0  0  0  0  0
  1  2  1  0
  2  3  1  0
  2  4  1  0
  4  5  1  0
  5  6  1  0
  6  7  1  0
  7  8  1  6
  7  9  1  0
  9 10  1  0
 10 11  1  0
 11 12  1  0
 12 13  1  0
 13 14  1  1
 13 15  1  0
 15 16  1  0
 17 16  1  1
 17 18  1  0
 18 19  1  0
 19 20  2  0
 20 21  1  0
 20 22  1  0
 22 23  1  6
 17 24  1  0
 24 25  1  6
 24 22  1  0
 25 23  1  0
M  RAD  5   9   2  12   2  14   3  18   2  25   2
M  END
>  <docking_score>  (2) 
-3.4870000000000001

$$$$

     RDKit          3D

 25 26  0  0  0  0  0  0  0  0999 V2000
   21.0628   -0.7067   -6.9827 C   0  0  0  0  0  0  0  0  0  0  0  0
   20.1719   -1.6036   -7.8119 C   0  0  0  0  0  0  0  0  0  0  0  0
   21.0169   -2.4766   -8.7394 C   0  0  0  0  0  0  0  0  0  0  0  0
   19.3918   -2.5269   -6.8991 C   0  0  0  0  0  0  0  0  0  0  0  0
   20.2006   -3.7982   -6.6867 C   0  0  0  0  0  0  0  0  0  0  0  0
   19.3126   -5.0145   -6.6308 C   0  0  0  0  0  0  0  0  0  0  0  0
   19.3011   -5.7905   -7.9120 C   0  0  1  0  0  0  0  0  0  0  0  0
   19.2780   -7.2678   -7.6223 C   0  0  0  0  0  0  0  0  0  0  0  0
   18.1012   -5.4061   -8.7224 C   0  0  0  0  0  3  0  0  0  0  0  0
   16.9710   -6.4271   -8.5373 C   0  0  0  0  0  0  0  0  0  0  0  0
   15.8384   -5.7199   -7.8493 C   0  0  0  0  0  0  0  0  0  0  0  0
   15.5531   -4.4107   -8.5008 C   0  0  0  0  0  3  0  0  0  0  0  0
   16.0544   -3.2985   -7.5592 C   0  0  1  0  0  0  0  0  0  0  0  0
   15.1227   -2.1310   -7.8664 C   0  0  0  0  0  2  0  0  0  0  0  0
   15.9079   -3.7042   -6.1549 C   0  0  0  0  0  0  0  0  0  0  0  0
   15.7421   -2.7344   -5.1300 C   0  0  0  0  0  0  0  0  0  0  0  0
   16.7805   -2.3018   -4.1873 C   0  0  1  0  0  0  0  0  0  0  0  0
   16.1431   -2.0403   -2.7931 C   0  0  0  0  0  3  0  0  0  0  0  0
   17.2138   -1.2712   -2.0630 C   0  0  0  0  0  0  0  0  0  0  0  0
   18.4340   -1.7331   -2.0790 C   0  0  0  0  0  0  0  0  0  0  0  0
   19.4444   -1.0488   -1.4163 O   0  0  0  0  0  0  0  0  0  0  0  0
   18.7608   -2.9685   -2.7876 C   0  0  1  0  0  0  0  0  0  0  0  0
   18.3444   -4.2471   -2.0920 C   0  0  0  0  0  0  0  0  0  0  0  0
   17.8797   -3.3241   -3.9296 C   0  0  1  0  0  0  0  0  0  0  0  0
   17.3799   -4.5573   -3.2082 C   0  0  0  0  0  3  0  0  0  0  0  0
  1  2  1  0
  2  3  1  0
  2  4  1  0
  4  5  1  0
  5  6  1  0
  6  7  1  0
  7  8  1  1
  7  9  1  0
  9 10  1  0
 10 11  1  0
 11 12  1  0
 12 13  1  0
 13 14  1  1
 13 15  1  0
 15 16  1  0
 17 16  1  6
 17 18  1  0
 18 19  1  0
 19 20  2  0
 20 21  1  0
 20 22  1  0
 22 23  1  1
 17 24  1  0
 24 25  1  1
 24 22  1  0
 25 23  1  0
M  RAD  5   9   2  12   2  14   3  18   2  25   2
M  END
>  <docking_score>  (3) 
-3.1080000000000001

$$$$
