
     RDKit          3D

 24 24  0  0  0  0  0  0  0  0999 V2000
   14.6885   -6.6320   -4.9993 C   0  0  0  0  0  0  0  0  0  0  0  0
   15.8566   -5.7439   -5.3609 C   0  0  1  0  0  0  0  0  0  0  0  0
   16.7166   -6.3174   -6.4321 C   0  0  0  0  0  0  0  0  0  0  0  0
   16.1921   -6.1798   -7.8225 C   0  0  2  0  0  0  0  0  0  0  0  0
   17.2827   -6.3402   -8.7039 O   0  0  0  0  0  0  0  0  0  0  0  0
   15.6086   -4.8194   -8.1161 C   0  0  2  0  0  0  0  0  0  0  0  0
   16.6196   -3.8437   -8.1226 O   0  0  0  0  0  0  0  0  0  0  0  0
   14.6480   -4.4186   -7.0164 C   0  0  1  0  0  0  0  0  0  0  0  0
   13.6828   -5.4129   -6.9169 O   0  0  0  0  0  0  0  0  0  0  0  0
   15.4339   -4.3590   -5.7480 C   0  0  1  0  0  0  0  0  0  0  0  0
   14.8287   -3.6004   -4.6889 N   0  0  0  0  0  0  0  0  0  0  0  0
   15.2508   -2.2226   -4.8500 C   0  0  0  0  0  3  0  0  0  0  0  0
   16.7537   -2.0887   -4.7799 C   0  0  1  0  0  0  0  0  0  0  0  0
   17.2744   -1.0711   -5.7633 C   0  0  0  0  0  0  0  0  0  0  0  0
   18.3347   -1.6619   -6.4563 O   0  0  0  0  0  0  0  0  0  0  0  0
   19.5050   -0.9477   -6.2404 C   0  0  0  0  0  3  0  0  0  0  0  0
   19.2786    0.1598   -5.4434 O   0  0  0  0  0  0  0  0  0  0  0  0
   17.2576   -1.8846   -3.3908 C   0  0  1  0  0  0  0  0  0  0  0  0
   16.2310   -2.1240   -2.5004 O   0  0  0  0  0  0  0  0  0  0  0  0
   18.3859   -2.8736   -3.1535 C   0  0  2  0  0  0  0  0  0  0  0  0
   18.4565   -3.7987   -4.1920 O   0  0  0  0  0  0  0  0  0  0  0  0
   18.1078   -3.6225   -1.8804 C   0  0  0  0  0  0  0  0  0  0  0  0
   19.3076   -3.6018   -1.1356 O   0  0  0  0  0  0  0  0  0  0  0  0
   17.9044   -4.9735   -2.2264 O   0  0  0  0  0  0  0  0  0  0  0  0
  2  1  1  6
  2  3  1  0
  3  4  1  0
  4  5  1  6
  4  6  1  0
  6  7  1  1
  6  8  1  0
  8  9  1  1
  8 10  1  0
 10 11  1  1
 11 12  1  0
 13 12  1  1
 13 14  1  0
 14 15  1  0
 15 16  1  0
 16 17  1  0
 13 18  1  0
 18 19  1  1
 18 20  1  0
 20 21  1  6
 20 22  1  0
 22 23  1  0
 22 24  1  0
 10  2  1  0
M  RAD  2  12   2  16   2
M  END
>  <docking_score>  (1) 
-3.923

$$$$

     RDKit          3D

 24 24  0  0  0  0  0  0  0  0999 V2000
   16.7177   -3.6119   -8.2368 C   0  0  0  0  0  0  0  0  0  0  0  0
   17.0587   -2.5727   -7.1937 C   0  0  1  0  0  0  0  0  0  0  0  0
   16.0080   -1.5289   -7.0441 C   0  0  0  0  0  0  0  0  0  0  0  0
   14.8127   -1.9276   -6.2444 C   0  0  2  0  0  0  0  0  0  0  0  0
   14.1705   -0.7431   -5.8241 O   0  0  0  0  0  0  0  0  0  0  0  0
   15.1537   -2.6912   -4.9882 C   0  0  2  0  0  0  0  0  0  0  0  0
   15.8128   -1.8559   -4.0707 O   0  0  0  0  0  0  0  0  0  0  0  0
   16.1242   -3.8088   -5.3078 C   0  0  1  0  0  0  0  0  0  0  0  0
   15.5421   -4.6054   -6.2859 O   0  0  0  0  0  0  0  0  0  0  0  0
   17.3602   -3.1732   -5.8540 C   0  0  1  0  0  0  0  0  0  0  0  0
   18.5374   -3.9957   -5.8184 N   0  0  0  0  0  0  0  0  0  0  0  0
   19.0113   -4.0108   -4.4482 C   0  0  0  0  0  3  0  0  0  0  0  0
   19.2298   -5.4199   -3.9499 C   0  0  1  0  0  0  0  0  0  0  0  0
   18.3638   -5.7353   -2.7564 C   0  0  0  0  0  0  0  0  0  0  0  0
   17.7391   -4.5474   -2.3661 O   0  0  0  0  0  0  0  0  0  0  0  0
   16.3982   -4.7789   -2.0931 C   0  0  0  0  0  3  0  0  0  0  0  0
   16.1045   -4.5276   -0.7650 O   0  0  0  0  0  0  0  0  0  0  0  0
   19.1441   -6.4421   -5.0330 C   0  0  1  0  0  0  0  0  0  0  0  0
   20.4147   -6.8928   -5.3274 O   0  0  0  0  0  0  0  0  0  0  0  0
   18.2949   -7.5933   -4.5222 C   0  0  2  0  0  0  0  0  0  0  0  0
   19.0812   -8.7181   -4.2855 O   0  0  0  0  0  0  0  0  0  0  0  0
   17.2817   -7.9461   -5.5748 C   0  0  0  0  0  0  0  0  0  0  0  0
   16.0245   -7.5533   -5.0653 O   0  0  0  0  0  0  0  0  0  0  0  0
   17.2322   -9.3525   -5.6521 O   0  0  0  0  0  0  0  0  0  0  0  0
  2  1  1  6
  2  3  1  0
  3  4  1  0
  4  5  1  1
  4  6  1  0
  6  7  1  1
  6  8  1  0
  8  9  1  6
  8 10  1  0
 10 11  1  6
 11 12  1  0
 13 12  1  6
 13 14  1  0
 14 15  1  0
 15 16  1  0
 16 17  1  0
 13 18  1  0
 18 19  1  1
 18 20  1  0
 20 21  1  6
 20 22  1  0
 22 23  1  0
 22 24  1  0
 10  2  1  0
M  RAD  2  12   2  16   2
M  END
>  <docking_score>  (2) 
-3.605

$$$$

     RDKit          3D

 24 24  0  0  0  0  0  0  0  0999 V2000
   17.0109   -5.3670   -3.0456 C   0  0  0  0  0  0  0  0  0  0  0  0
   18.2503   -5.2824   -3.9065 C   0  0  1  0  0  0  0  0  0  0  0  0
   19.3160   -6.2351   -3.4911 C   0  0  0  0  0  0  0  0  0  0  0  0
   19.1209   -7.6496   -3.9252 C   0  0  2  0  0  0  0  0  0  0  0  0
   20.3778   -8.2885   -3.8630 O   0  0  0  0  0  0  0  0  0  0  0  0
   18.6493   -7.7838   -5.3524 C   0  0  2  0  0  0  0  0  0  0  0  0
   19.6576   -7.3763   -6.2420 O   0  0  0  0  0  0  0  0  0  0  0  0
   17.4752   -6.8602   -5.6000 C   0  0  1  0  0  0  0  0  0  0  0  0
   16.4902   -7.1726   -4.6714 O   0  0  0  0  0  0  0  0  0  0  0  0
   17.9569   -5.4663   -5.3647 C   0  0  1  0  0  0  0  0  0  0  0  0
   17.1463   -4.4331   -5.9467 N   0  0  0  0  0  0  0  0  0  0  0  0
   17.9411   -3.2206   -5.9649 C   0  0  0  0  0  3  0  0  0  0  0  0
   17.4107   -2.1922   -4.9939 C   0  0  1  0  0  0  0  0  0  0  0  0
   18.5231   -1.4541   -4.2928 C   0  0  0  0  0  0  0  0  0  0  0  0
   19.6792   -2.2313   -4.4070 O   0  0  0  0  0  0  0  0  0  0  0  0
   20.3622   -2.2541   -3.1990 C   0  0  0  0  0  3  0  0  0  0  0  0
   19.5008   -2.4679   -2.1381 O   0  0  0  0  0  0  0  0  0  0  0  0
   16.3882   -1.2903   -5.5992 C   0  0  1  0  0  0  0  0  0  0  0  0
   16.1023   -1.7279   -6.8763 O   0  0  0  0  0  0  0  0  0  0  0  0
   15.1378   -1.3589   -4.7395 C   0  0  2  0  0  0  0  0  0  0  0  0
   14.6692   -2.6676   -4.6553 O   0  0  0  0  0  0  0  0  0  0  0  0
   14.0677   -0.5211   -5.3813 C   0  0  0  0  0  0  0  0  0  0  0  0
   14.3096    0.8109   -4.9789 O   0  0  0  0  0  0  0  0  0  0  0  0
   12.8429   -0.8773   -4.7820 O   0  0  0  0  0  0  0  0  0  0  0  0
  2  1  1  1
  2  3  1  0
  3  4  1  0
  4  5  1  6
  4  6  1  0
  6  7  1  6
  6  8  1  0
  8  9  1  1
  8 10  1  0
 10 11  1  1
 11 12  1  0
 13 12  1  6
 13 14  1  0
 14 15  1  0
 15 16  1  0
 16 17  1  0
 13 18  1  0
 18 19  1  6
 18 20  1  0
 20 21  1  6
 20 22  1  0
 22 23  1  0
 22 24  1  0
 10  2  1  0
M  RAD  2  12   2  16   2
M  END
>  <docking_score>  (3) 
-3.5569999999999999

$$$$
