
     RDKit          3D

 11 11  0  0  0  0  0  0  0  0999 V2000
    5.4370   -5.1583   -8.4894 O   0  0  0  0  0  0  0  0  0  0  0  0
    4.7865   -3.9322   -8.3768 C   0  0  0  0  0  0  0  0  0  0  0  0
    5.7727   -2.8365   -8.0010 C   0  0  1  0  0  0  0  0  0  0  0  0
    5.2866   -1.6072   -8.5952 N   0  0  0  0  0  0  0  0  0  0  0  0
    6.0953   -0.4646   -8.2138 C   0  0  0  0  0  0  0  0  0  0  0  0
    6.0774   -0.3656   -6.7185 C   0  0  2  0  0  0  0  0  0  0  0  0
    6.6499    0.8093   -6.2492 O   0  0  0  0  0  0  0  0  0  0  0  0
    6.7163   -1.5981   -6.1317 C   0  0  1  0  0  0  0  0  0  0  0  0
    6.8360   -1.5294   -4.7498 O   0  0  0  0  0  0  0  0  0  0  0  0
    5.8072   -2.7621   -6.4867 C   0  0  1  0  0  0  0  0  0  0  0  0
    4.5115   -2.3675   -6.0811 O   0  0  0  0  0  0  0  0  0  0  0  0
  1  2  1  0
  3  2  1  1
  3  4  1  0
  4  5  1  0
  5  6  1  0
  6  7  1  6
  6  8  1  0
  8  9  1  1
  8 10  1  0
 10 11  1  6
 10  3  1  0
M  END
>  <docking_score>  (1) 
-4.0030000000000001

$$$$

     RDKit          3D

 11 11  0  0  0  0  0  0  0  0999 V2000
    5.5406   -3.9390   -7.7931 O   0  0  0  0  0  0  0  0  0  0  0  0
    5.2611   -2.6404   -8.2114 C   0  0  0  0  0  0  0  0  0  0  0  0
    5.3815   -1.6668   -7.0486 C   0  0  1  0  0  0  0  0  0  0  0  0
    6.5187   -2.0914   -6.2568 N   0  0  0  0  0  0  0  0  0  0  0  0
    6.7975   -1.1697   -5.1716 C   0  0  0  0  0  0  0  0  0  0  0  0
    7.0507    0.1816   -5.7680 C   0  0  2  0  0  0  0  0  0  0  0  0
    7.5280    1.0990   -4.8412 O   0  0  0  0  0  0  0  0  0  0  0  0
    5.8031    0.6575   -6.4670 C   0  0  1  0  0  0  0  0  0  0  0  0
    5.9255    1.9531   -6.9517 O   0  0  0  0  0  0  0  0  0  0  0  0
    5.5829   -0.2842   -7.6383 C   0  0  1  0  0  0  0  0  0  0  0  0
    6.8164   -0.3249   -8.3281 O   0  0  0  0  0  0  0  0  0  0  0  0
  1  2  1  0
  3  2  1  6
  3  4  1  0
  4  5  1  0
  5  6  1  0
  6  7  1  1
  6  8  1  0
  8  9  1  6
  8 10  1  0
 10 11  1  6
 10  3  1  0
M  END
>  <docking_score>  (2) 
-3.8420000000000001

$$$$

     RDKit          3D

 11 11  0  0  0  0  0  0  0  0999 V2000
   13.7699    0.1611   -4.3508 O   0  0  0  0  0  0  0  0  0  0  0  0
   14.4078   -0.4644   -5.4191 C   0  0  0  0  0  0  0  0  0  0  0  0
   15.4858   -1.4130   -4.9166 C   0  0  1  0  0  0  0  0  0  0  0  0
   15.3262   -1.5123   -3.4796 N   0  0  0  0  0  0  0  0  0  0  0  0
   16.2389   -2.4791   -2.8988 C   0  0  0  0  0  0  0  0  0  0  0  0
   15.9795   -3.8052   -3.5468 C   0  0  2  0  0  0  0  0  0  0  0  0
   16.6534   -4.8492   -2.9269 O   0  0  0  0  0  0  0  0  0  0  0  0
   16.2880   -3.7074   -5.0188 C   0  0  1  0  0  0  0  0  0  0  0  0
   16.1766   -4.9296   -5.6688 O   0  0  0  0  0  0  0  0  0  0  0  0
   15.2697   -2.7459   -5.6069 C   0  0  1  0  0  0  0  0  0  0  0  0
   14.0096   -3.2165   -5.1713 O   0  0  0  0  0  0  0  0  0  0  0  0
  1  2  1  0
  3  2  1  6
  3  4  1  0
  4  5  1  0
  5  6  1  0
  6  7  1  1
  6  8  1  0
  8  9  1  6
  8 10  1  0
 10 11  1  1
 10  3  1  0
M  END
>  <docking_score>  (3) 
-3.681

$$$$
