
     RDKit          3D

 52 59  0  0  0  0  0  0  0  0999 V2000
   10.9444   13.9156   13.6258 C   0  0  0  0  0  0  0  0  0  0  0  0
   10.2332   13.5620   12.3310 C   0  0  0  0  0  0  0  0  0  0  0  0
    9.7955   14.8420   11.6262 C   0  0  0  0  0  0  0  0  0  0  0  0
   11.1031   12.7248   11.4402 C   0  0  0  0  0  0  0  0  0  0  0  0
   10.5814   11.2856   11.3822 C   0  0  0  0  0  0  0  0  0  0  0  0
    9.2241   11.1843   12.0234 C   0  0  0  0  0  0  0  0  0  0  0  0
    8.1804   11.3754   10.9440 C   0  0  1  0  0  0  0  0  0  0  0  0
    6.8829   10.6811   11.2912 C   0  0  0  0  0  0  0  0  0  0  0  0
    7.9985   12.7983   10.5560 C   0  0  0  0  0  3  0  0  0  0  0  0
    6.6784   13.0737    9.8823 C   0  0  2  0  0  0  0  0  0  0  0  0
    6.1368   14.4444   10.2224 C   0  0  0  0  0  0  0  0  0  0  0  0
    4.6515   14.4159   10.0003 C   0  0  1  0  0  0  0  0  0  0  0  0
    4.1777   15.6175    9.2048 C   0  0  0  0  0  0  0  0  0  0  0  0
    4.2924   13.2038    9.1442 C   0  0  0  0  0  0  0  0  0  0  0  0
    3.8481   14.3119   11.2314 C   0  0  0  0  0  0  0  0  0  0  0  0
    3.1107   15.3423   11.6220 C   0  0  0  0  0  0  0  0  0  0  0  0
    2.2580   15.4178   12.8058 C   0  0  0  0  0  0  0  0  0  0  0  0
    2.7606   14.7034   14.0178 C   0  0  2  0  0  0  0  0  0  0  0  0
    2.7163   15.6638   15.2141 C   0  0  1  0  0  0  0  0  0  0  0  0
    2.5653   14.9588   16.3958 O   0  0  0  0  0  0  0  0  0  0  0  0
    4.1622   16.0719   14.9101 C   0  0  0  0  0  0  0  0  0  0  0  0
    4.2707   14.7488   14.1531 C   0  0  1  0  0  0  0  0  0  0  0  0
    4.7506   13.6553   15.0857 C   0  0  0  0  0  0  0  0  0  0  0  0
    4.5218   12.3811   14.5881 O   0  0  0  0  0  0  0  0  0  0  0  0
    6.6663   12.3670   14.0220 S   0  0  2  0  0  0  0  0  0  0  0  0
    7.2047   13.0136   13.4127 C   0  0  0  0  0  0  0  0  0  0  0  0
    6.2045   12.1660   12.5013 C   0  0  2  0  0  0  0  0  0  0  0  0
    5.5330   12.2148   11.4412 S   0  0  2  0  0  0  0  0  0  0  0  0
    4.2939   11.7970   10.5258 S   0  0  1  0  0  0  0  0  0  0  0  0
    2.8300   11.0073   10.5148 C   0  0  0  0  0  0  0  0  0  0  0  0
    3.9116   10.2307    9.8423 C   0  0  1  0  0  0  0  0  0  0  0  0
    3.9338    9.9788    8.0725 S   0  0  0  0  0  0  0  0  0  0  0  0
    3.8027   11.5101    7.3065 O   0  0  0  0  0  0  0  0  0  0  0  0
    2.4539   11.8082    7.1248 C   0  0  0  0  0  0  0  0  0  0  0  0
    2.2799   12.1900    5.6630 C   0  0  0  0  0  0  0  0  0  0  0  0
    3.6511   12.2106    4.9754 C   0  0  1  0  0  0  0  0  0  0  0  0
    4.6640   12.4270    6.0759 C   0  0  0  0  0  0  0  0  0  0  0  0
    3.8603   10.9578    4.1995 C   0  0  0  0  0  0  0  0  0  0  0  0
    5.1909   10.3110    4.3466 C   0  0  0  0  0  0  0  0  0  0  0  0
    5.7924   10.3677    5.7094 C   0  0  0  0  0  0  0  0  0  0  0  0
    6.9138   11.3388    6.1395 S   0  0  1  0  0  0  0  0  0  0  0  0
    8.5556   10.6777    4.4194 C   0  0  0  0  0  0  0  0  0  0  0  0
    7.2090   12.7899    6.1373 S   0  0  0  0  0  0  0  0  0  0  0  0
    6.0565   14.1911    6.0052 C   0  0  1  0  0  0  0  0  0  0  0  0
    6.0763   14.7052    4.7105 O   0  0  0  0  0  0  0  0  0  0  0  0
    6.9487   13.9684    3.9513 C   0  0  0  0  0  0  0  0  0  0  0  0
    6.5443   14.1028    2.4969 C   0  0  1  0  0  0  0  0  0  0  0  0
    6.6970   12.3160    2.0555 C   0  0  0  0  0  0  0  0  0  0  0  0
    5.3108   13.2375    1.8655 S   0  0  0  0  0  0  0  0  0  0  0  0
    3.9817   12.9507    2.6925 C   0  0  0  0  0  0  0  0  0  0  0  0
    3.7237   13.4124    4.0609 C   0  0  0  0  0  3  0  0  0  0  0  0
    4.7582   13.8030    6.2876 O   0  0  0  0  0  0  0  0  0  0  0  0
  1  2  1  0
  2  3  1  0
  2  4  1  0
  4  5  1  0
  5  6  1  0
  6  7  1  0
  7  8  1  1
  7  9  1  0
 10  9  1  1
 10 11  1  0
 11 12  1  0
 12 13  1  6
 12 14  1  0
 12 15  1  0
 15 16  2  3
 16 17  1  0
 18 17  1  6
 18 19  1  0
 19 20  1  1
 19 21  1  0
 22 21  1  1
 22 23  1  0
 23 24  1  0
 24 25  1  0
 25 26  1  6
 27 26  1  6
 27 28  1  0
 28 29  1  0
 29 30  1  1
 30 31  1  0
 31 32  1  6
 32 33  1  0
 33 34  1  0
 34 35  1  0
 36 35  1  1
 36 37  1  0
 36 38  1  0
 38 39  1  0
 39 40  1  0
 40 41  1  0
 41 42  1  6
 41 43  1  0
 43 44  1  0
 44 45  1  6
 45 46  1  0
 47 46  1  1
 47 48  1  0
 47 49  1  0
 49 50  2  3
 50 51  1  0
 44 52  1  0
 28 10  1  6
 29 14  1  0
 22 18  1  0
 27 25  1  0
 31 29  1  0
 51 36  1  0
 52 37  1  0
 49 48  1  1
M  RAD  2   9   2  51   2
M  END
>  <docking_score>  (1) 
8.7240000000000002

$$$$
