
     RDKit          3D

 25 26  0  0  0  0  0  0  0  0999 V2000
   14.6193   -4.7026   -7.6725 C   0  0  0  0  0  0  0  0  0  0  0  0
   14.9719   -4.7454   -6.1969 C   0  0  1  0  0  0  0  0  0  0  0  0
   14.3774   -6.0363   -5.6397 C   0  0  0  0  0  0  0  0  0  0  0  0
   15.4136   -6.8117   -4.8344 C   0  0  2  0  0  0  0  0  0  0  0  0
   15.9223   -5.9042   -3.8978 O   0  0  0  0  0  0  0  0  0  0  0  0
   16.5852   -7.2259   -5.7150 C   0  0  2  0  0  0  0  0  0  0  0  0
   17.7126   -7.4691   -4.9145 O   0  0  0  0  0  0  0  0  0  0  0  0
   16.9697   -6.0581   -6.6166 C   0  0  1  0  0  0  0  0  0  0  0  0
   16.2742   -6.2658   -7.8186 O   0  0  0  0  0  0  0  0  0  0  0  0
   16.4542   -4.8123   -5.9417 C   0  0  1  0  0  0  0  0  0  0  0  0
   17.1576   -3.6218   -6.3132 N   0  0  0  0  0  0  0  0  0  0  0  0
   17.7509   -3.0400   -5.1581 C   0  0  1  0  0  0  0  0  0  0  0  0
   18.8546   -2.0479   -5.4783 C   0  0  0  0  0  0  0  0  0  0  0  0
   19.9698   -2.1289   -4.4480 C   0  0  1  0  0  0  0  0  0  0  0  0
   19.9449   -0.9405   -3.7121 O   0  0  0  0  0  0  0  0  0  0  0  0
   19.7013   -3.3160   -3.5660 C   0  0  1  0  0  0  0  0  0  0  0  0
   20.9411   -3.9250   -2.9810 C   0  0  0  0  0  0  0  0  0  0  0  0
   18.6655   -2.9951   -2.5260 C   0  0  1  0  0  0  0  0  0  0  0  0
   19.3173   -2.4511   -1.4121 O   0  0  0  0  0  0  0  0  0  0  0  0
   17.6664   -1.9674   -2.9839 C   0  0  2  0  0  0  0  0  0  0  0  0
   16.7756   -1.6500   -1.7987 C   0  0  0  0  0  0  0  0  0  0  0  0
   16.8274   -2.4647   -4.1351 C   0  0  1  0  0  0  0  0  0  0  0  0
   16.1199   -1.3702   -4.6488 O   0  0  0  0  0  0  0  0  0  0  0  0
   14.8267   -1.6188   -4.7038 O   0  0  0  0  0  0  0  0  0  0  0  0
   13.9033   -0.1723   -5.3622 Br  0  0  0  0  0  0  0  0  0  0  0  0
  2  1  1  6
  2  3  1  0
  3  4  1  0
  4  5  1  1
  4  6  1  0
  6  7  1  1
  6  8  1  0
  8  9  1  6
  8 10  1  0
 10 11  1  6
 12 11  1  6
 12 13  1  0
 13 14  1  0
 14 15  1  1
 14 16  1  0
 16 17  1  1
 16 18  1  0
 18 19  1  1
 18 20  1  0
 20 21  1  1
 20 22  1  0
 22 23  1  6
 23 24  1  0
 24 25  1  0
 10  2  1  0
 22 12  1  0
M  END
>  <docking_score>  (1) 
-5.2679999999999998

$$$$

     RDKit          3D

 25 26  0  0  0  0  0  0  0  0999 V2000
   21.3539   -2.0947   -4.3051 C   0  0  0  0  0  0  0  0  0  0  0  0
   20.4729   -3.1475   -3.6579 C   0  0  1  0  0  0  0  0  0  0  0  0
   20.4755   -2.8623   -2.1583 C   0  0  0  0  0  0  0  0  0  0  0  0
   19.0557   -2.8407   -1.6040 C   0  0  2  0  0  0  0  0  0  0  0  0
   18.4727   -4.0474   -2.0083 O   0  0  0  0  0  0  0  0  0  0  0  0
   18.2389   -1.7288   -2.2492 C   0  0  2  0  0  0  0  0  0  0  0  0
   16.8708   -2.0210   -2.1316 O   0  0  0  0  0  0  0  0  0  0  0  0
   18.5232   -1.7050   -3.7470 C   0  0  1  0  0  0  0  0  0  0  0  0
   19.5456   -0.7583   -3.9210 O   0  0  0  0  0  0  0  0  0  0  0  0
   19.0367   -3.0768   -4.1042 C   0  0  1  0  0  0  0  0  0  0  0  0
   18.8422   -3.4257   -5.4792 N   0  0  0  0  0  0  0  0  0  0  0  0
   17.4490   -3.4941   -5.7598 C   0  0  1  0  0  0  0  0  0  0  0  0
   17.0548   -2.7907   -7.0463 C   0  0  0  0  0  0  0  0  0  0  0  0
   15.6976   -2.1208   -6.9020 C   0  0  1  0  0  0  0  0  0  0  0  0
   14.8006   -2.8153   -7.7189 O   0  0  0  0  0  0  0  0  0  0  0  0
   15.2896   -2.2053   -5.4578 C   0  0  1  0  0  0  0  0  0  0  0  0
   14.3879   -1.0894   -5.0199 C   0  0  0  0  0  0  0  0  0  0  0  0
   14.7351   -3.5627   -5.1301 C   0  0  1  0  0  0  0  0  0  0  0  0
   13.3619   -3.5529   -5.4055 O   0  0  0  0  0  0  0  0  0  0  0  0
   15.3331   -4.6630   -5.9642 C   0  0  2  0  0  0  0  0  0  0  0  0
   14.5907   -5.9394   -5.6201 C   0  0  0  0  0  0  0  0  0  0  0  0
   16.8072   -4.8412   -5.6965 C   0  0  1  0  0  0  0  0  0  0  0  0
   17.3181   -5.6934   -6.6839 O   0  0  0  0  0  0  0  0  0  0  0  0
   18.2713   -6.4665   -6.2031 O   0  0  0  0  0  0  0  0  0  0  0  0
   17.5718   -8.0022   -5.4748 Br  0  0  0  0  0  0  0  0  0  0  0  0
  2  1  1  6
  2  3  1  0
  3  4  1  0
  4  5  1  6
  4  6  1  0
  6  7  1  6
  6  8  1  0
  8  9  1  1
  8 10  1  0
 10 11  1  6
 12 11  1  6
 12 13  1  0
 13 14  1  0
 14 15  1  6
 14 16  1  0
 16 17  1  6
 16 18  1  0
 18 19  1  6
 18 20  1  0
 20 21  1  1
 20 22  1  0
 22 23  1  6
 23 24  1  0
 24 25  1  0
 10  2  1  0
 22 12  1  0
M  END
>  <docking_score>  (2) 
-4.9260000000000002

$$$$

     RDKit          3D

 25 26  0  0  0  0  0  0  0  0999 V2000
   19.8335   -1.4797   -1.7630 C   0  0  0  0  0  0  0  0  0  0  0  0
   20.0101   -2.1463   -3.1150 C   0  0  1  0  0  0  0  0  0  0  0  0
   21.1815   -3.1156   -2.9780 C   0  0  0  0  0  0  0  0  0  0  0  0
   20.8170   -4.4928   -3.5203 C   0  0  2  0  0  0  0  0  0  0  0  0
   20.3363   -4.2746   -4.8167 O   0  0  0  0  0  0  0  0  0  0  0  0
   19.6656   -5.0994   -2.7291 C   0  0  2  0  0  0  0  0  0  0  0  0
   19.0241   -6.0768   -3.5063 O   0  0  0  0  0  0  0  0  0  0  0  0
   18.6136   -4.0254   -2.4753 C   0  0  1  0  0  0  0  0  0  0  0  0
   18.9157   -3.4938   -1.2113 O   0  0  0  0  0  0  0  0  0  0  0  0
   18.8204   -2.9696   -3.5316 C   0  0  1  0  0  0  0  0  0  0  0  0
   17.6498   -2.1927   -3.8079 N   0  0  0  0  0  0  0  0  0  0  0  0
   16.8720   -2.8434   -4.8060 C   0  0  1  0  0  0  0  0  0  0  0  0
   15.5624   -3.4059   -4.2826 C   0  0  0  0  0  0  0  0  0  0  0  0
   15.2244   -4.7184   -4.9715 C   0  0  1  0  0  0  0  0  0  0  0  0
   14.1049   -4.4904   -5.7771 O   0  0  0  0  0  0  0  0  0  0  0  0
   16.4108   -5.1275   -5.7986 C   0  0  1  0  0  0  0  0  0  0  0  0
   16.5327   -6.6108   -5.9856 C   0  0  0  0  0  0  0  0  0  0  0  0
   16.4519   -4.3730   -7.0973 C   0  0  1  0  0  0  0  0  0  0  0  0
   15.6897   -5.0779   -8.0375 O   0  0  0  0  0  0  0  0  0  0  0  0
   15.8508   -2.9970   -7.0011 C   0  0  2  0  0  0  0  0  0  0  0  0
   15.8411   -2.4139   -8.4007 C   0  0  0  0  0  0  0  0  0  0  0  0
   16.6358   -2.0978   -6.0783 C   0  0  1  0  0  0  0  0  0  0  0  0
   15.8709   -0.9454   -5.8564 O   0  0  0  0  0  0  0  0  0  0  0  0
   14.5847   -1.2278   -5.7990 O   0  0  0  0  0  0  0  0  0  0  0  0
   13.6917   -0.0270   -4.7318 Br  0  0  0  0  0  0  0  0  0  0  0  0
  2  1  1  1
  2  3  1  0
  3  4  1  0
  4  5  1  6
  4  6  1  0
  6  7  1  6
  6  8  1  0
  8  9  1  1
  8 10  1  0
 10 11  1  1
 12 11  1  1
 12 13  1  0
 13 14  1  0
 14 15  1  6
 14 16  1  0
 16 17  1  6
 16 18  1  0
 18 19  1  6
 18 20  1  0
 20 21  1  6
 20 22  1  0
 22 23  1  1
 23 24  1  0
 24 25  1  0
 10  2  1  0
 22 12  1  0
M  END
>  <docking_score>  (3) 
-4.8040000000000003

$$$$
