
     RDKit          3D

 24 24  0  0  0  0  0  0  0  0999 V2000
   15.8631   -6.0754   -6.9260 C   0  0  0  0  0  0  0  0  0  0  0  0
   16.7030   -6.8906   -5.9888 C   0  0  1  0  0  0  0  0  0  0  0  0
   17.5260   -7.9256   -6.7177 C   0  0  0  0  0  0  0  0  0  0  0  0
   18.8610   -8.0759   -6.0210 C   0  0  2  0  0  0  0  0  0  0  0  0
   18.7121   -8.3600   -4.6600 O   0  0  0  0  0  0  0  0  0  0  0  0
   19.7066   -6.8251   -6.1279 C   0  0  2  0  0  0  0  0  0  0  0  0
   20.6852   -6.8740   -5.1323 O   0  0  0  0  0  0  0  0  0  0  0  0
   18.8189   -5.6207   -5.8931 C   0  0  1  0  0  0  0  0  0  0  0  0
   18.4212   -5.0378   -7.1000 O   0  0  0  0  0  0  0  0  0  0  0  0
   17.6079   -6.0782   -5.1235 C   0  0  1  0  0  0  0  0  0  0  0  0
   16.9299   -4.9903   -4.4541 N   0  0  0  0  0  0  0  0  0  0  0  0
   17.9437   -4.0537   -4.0133 C   0  0  0  0  0  3  0  0  0  0  0  0
   17.5376   -3.3775   -2.7126 C   0  0  2  0  0  0  0  0  0  0  0  0
   18.7714   -2.9870   -1.9318 C   0  0  0  0  0  0  0  0  0  0  0  0
   18.9584   -1.6284   -2.0303 O   0  0  0  0  0  0  0  0  0  0  0  0
   20.0726   -1.2110   -1.3098 C   0  0  0  0  0  3  0  0  0  0  0  0
   20.7406   -2.3598   -0.8661 O   0  0  0  0  0  0  0  0  0  0  0  0
   16.5717   -4.1986   -1.9118 C   0  0  0  0  0  2  0  0  0  0  0  0
   16.8589   -2.0566   -3.0927 C   0  0  0  0  0  0  0  0  0  0  0  0
   15.4953   -2.2624   -3.2640 O   0  0  0  0  0  0  0  0  0  0  0  0
   14.9909   -1.7152   -4.4061 C   0  0  2  0  0  0  0  0  0  0  0  0
   15.9521   -1.4675   -5.3837 O   0  0  0  0  0  0  0  0  0  0  0  0
   14.1176   -0.5291   -4.2441 C   0  0  0  0  0  3  0  0  0  0  0  0
   13.5223   -0.0641   -5.3868 O   0  0  0  0  0  0  0  0  0  0  0  0
  2  1  1  6
  2  3  1  0
  3  4  1  0
  4  5  1  1
  4  6  1  0
  6  7  1  1
  6  8  1  0
  8  9  1  6
  8 10  1  0
 10 11  1  6
 11 12  1  0
 12 13  1  0
 13 14  1  0
 14 15  1  0
 15 16  1  0
 16 17  1  0
 13 18  1  1
 13 19  1  0
 19 20  1  0
 20 21  1  0
 21 22  1  6
 21 23  1  0
 23 24  1  0
 10  2  1  0
M  RAD  4  12   2  16   2  18   3  23   2
M  END
>  <docking_score>  (1) 
-3.992

$$$$

     RDKit          3D

 24 24  0  0  0  0  0  0  0  0999 V2000
   20.3423   -5.4836   -5.0652 C   0  0  0  0  0  0  0  0  0  0  0  0
   19.0513   -5.8770   -5.7186 C   0  0  1  0  0  0  0  0  0  0  0  0
   19.2716   -6.7382   -6.9391 C   0  0  0  0  0  0  0  0  0  0  0  0
   18.1599   -7.7610   -7.0297 C   0  0  2  0  0  0  0  0  0  0  0  0
   16.8958   -7.1635   -7.0072 O   0  0  0  0  0  0  0  0  0  0  0  0
   18.2049   -8.7578   -5.8916 C   0  0  2  0  0  0  0  0  0  0  0  0
   16.9512   -9.3664   -5.7953 O   0  0  0  0  0  0  0  0  0  0  0  0
   18.4943   -8.0105   -4.6065 C   0  0  1  0  0  0  0  0  0  0  0  0
   19.8485   -8.0856   -4.2673 O   0  0  0  0  0  0  0  0  0  0  0  0
   18.0967   -6.5716   -4.8053 C   0  0  1  0  0  0  0  0  0  0  0  0
   17.8933   -5.8724   -3.5559 N   0  0  0  0  0  0  0  0  0  0  0  0
   16.7216   -5.0350   -3.7137 C   0  0  0  0  0  3  0  0  0  0  0  0
   16.8290   -3.7758   -2.8669 C   0  0  2  0  0  0  0  0  0  0  0  0
   18.1758   -3.1255   -3.0854 C   0  0  0  0  0  0  0  0  0  0  0  0
   18.7752   -2.9054   -1.8676 O   0  0  0  0  0  0  0  0  0  0  0  0
   19.9387   -2.1544   -1.9975 C   0  0  0  0  0  3  0  0  0  0  0  0
   19.7714   -0.9863   -1.2424 O   0  0  0  0  0  0  0  0  0  0  0  0
   16.5255   -4.0253   -1.4198 C   0  0  0  0  0  2  0  0  0  0  0  0
   15.8004   -2.7818   -3.4181 C   0  0  0  0  0  0  0  0  0  0  0  0
   16.3205   -2.1401   -4.5356 O   0  0  0  0  0  0  0  0  0  0  0  0
   15.3775   -1.7438   -5.4366 C   0  0  2  0  0  0  0  0  0  0  0  0
   14.0706   -1.8427   -4.9639 O   0  0  0  0  0  0  0  0  0  0  0  0
   15.4693   -2.3299   -6.7945 C   0  0  0  0  0  3  0  0  0  0  0  0
   16.1756   -3.4992   -6.8948 O   0  0  0  0  0  0  0  0  0  0  0  0
  2  1  1  1
  2  3  1  0
  3  4  1  0
  4  5  1  1
  4  6  1  0
  6  7  1  1
  6  8  1  0
  8  9  1  6
  8 10  1  0
 10 11  1  1
 11 12  1  0
 12 13  1  0
 13 14  1  0
 14 15  1  0
 15 16  1  0
 16 17  1  0
 13 18  1  1
 13 19  1  0
 19 20  1  0
 20 21  1  0
 21 22  1  1
 21 23  1  0
 23 24  1  0
 10  2  1  0
M  RAD  4  12   2  16   2  18   3  23   2
M  END
>  <docking_score>  (2) 
-3.8010000000000002

$$$$

     RDKit          3D

 24 24  0  0  0  0  0  0  0  0999 V2000
   19.3641   -4.1236   -7.6109 C   0  0  0  0  0  0  0  0  0  0  0  0
   17.9697   -4.3711   -7.1183 C   0  0  1  0  0  0  0  0  0  0  0  0
   17.2073   -5.3123   -8.0198 C   0  0  0  0  0  0  0  0  0  0  0  0
   16.2995   -6.1795   -7.1747 C   0  0  2  0  0  0  0  0  0  0  0  0
   15.4632   -5.4171   -6.3533 O   0  0  0  0  0  0  0  0  0  0  0  0
   17.0771   -7.1169   -6.2761 C   0  0  2  0  0  0  0  0  0  0  0  0
   16.2272   -7.5459   -5.2539 O   0  0  0  0  0  0  0  0  0  0  0  0
   18.2367   -6.3538   -5.6704 C   0  0  1  0  0  0  0  0  0  0  0  0
   19.4243   -6.5938   -6.3677 O   0  0  0  0  0  0  0  0  0  0  0  0
   17.9037   -4.8859   -5.7188 C   0  0  1  0  0  0  0  0  0  0  0  0
   18.6887   -4.1059   -4.7878 N   0  0  0  0  0  0  0  0  0  0  0  0
   17.9691   -2.8728   -4.5411 C   0  0  0  0  0  3  0  0  0  0  0  0
   17.4852   -2.7986   -3.1009 C   0  0  2  0  0  0  0  0  0  0  0  0
   18.0221   -1.5476   -2.4444 C   0  0  0  0  0  0  0  0  0  0  0  0
   19.1197   -1.8716   -1.6821 O   0  0  0  0  0  0  0  0  0  0  0  0
   20.0911   -0.8774   -1.7339 C   0  0  0  0  0  3  0  0  0  0  0  0
   21.0480   -1.2736   -2.6773 O   0  0  0  0  0  0  0  0  0  0  0  0
   17.7886   -4.0452   -2.3247 C   0  0  0  0  0  2  0  0  0  0  0  0
   15.9645   -2.6129   -3.1531 C   0  0  0  0  0  0  0  0  0  0  0  0
   15.5170   -2.7733   -4.4589 O   0  0  0  0  0  0  0  0  0  0  0  0
   14.6718   -1.7904   -4.8803 C   0  0  2  0  0  0  0  0  0  0  0  0
   15.0131   -1.2463   -6.1166 O   0  0  0  0  0  0  0  0  0  0  0  0
   14.3813   -0.7054   -3.9136 C   0  0  0  0  0  3  0  0  0  0  0  0
   13.5370    0.2787   -4.3549 O   0  0  0  0  0  0  0  0  0  0  0  0
  2  1  1  6
  2  3  1  0
  3  4  1  0
  4  5  1  1
  4  6  1  0
  6  7  1  1
  6  8  1  0
  8  9  1  6
  8 10  1  0
 10 11  1  1
 11 12  1  0
 12 13  1  0
 13 14  1  0
 14 15  1  0
 15 16  1  0
 16 17  1  0
 13 18  1  1
 13 19  1  0
 19 20  1  0
 20 21  1  0
 21 22  1  6
 21 23  1  0
 23 24  1  0
 10  2  1  0
M  RAD  4  12   2  16   2  18   3  23   2
M  END
>  <docking_score>  (3) 
-3.7799999999999998

$$$$
