
     RDKit          3D

  9  9  0  0  0  0  0  0  0  0999 V2000
    6.8859    0.5176   -7.0484 C   0  0  0  0  0  0  0  0  0  0  0  0
    6.8713    0.2122   -5.7022 O   0  0  0  0  0  0  0  0  0  0  0  0
    6.7226   -1.1477   -5.5349 C   0  0  0  0  0  3  0  0  0  0  0  0
    5.4001   -1.4809   -5.8267 O   0  0  0  0  0  0  0  0  0  0  0  0
    5.2607   -1.9824   -7.1022 C   0  0  2  0  0  0  0  0  0  0  0  0
    6.1994   -3.1745   -7.2283 C   0  0  0  0  0  0  0  0  0  0  0  0
    5.5411   -4.2556   -7.8030 O   0  0  0  0  0  0  0  0  0  0  0  0
    5.5702   -0.9643   -8.1670 C   0  0  0  0  0  3  0  0  0  0  0  0
    5.6394    0.3039   -7.6124 O   0  0  0  0  0  0  0  0  0  0  0  0
  1  2  1  0
  2  3  1  0
  3  4  1  0
  4  5  1  0
  5  6  1  1
  6  7  1  0
  5  8  1  0
  8  9  1  0
  9  1  1  0
M  RAD  2   3   2   8   2
M  END
>  <docking_score>  (1) 
-3.2029999999999998

$$$$

     RDKit          3D

  9  9  0  0  0  0  0  0  0  0999 V2000
    9.9810   14.8557    2.7327 C   0  0  0  0  0  0  0  0  0  0  0  0
    9.9616   14.0827    3.8762 O   0  0  0  0  0  0  0  0  0  0  0  0
    8.9483   13.1521    3.7918 C   0  0  0  0  0  3  0  0  0  0  0  0
    7.7339   13.8117    3.9794 O   0  0  0  0  0  0  0  0  0  0  0  0
    7.1011   14.0829    2.7861 C   0  0  2  0  0  0  0  0  0  0  0  0
    6.9345   12.7617    2.0480 C   0  0  0  0  0  0  0  0  0  0  0  0
    6.7319   12.9830    0.6907 O   0  0  0  0  0  0  0  0  0  0  0  0
    7.8611   15.0617    1.9314 C   0  0  0  0  0  3  0  0  0  0  0  0
    8.8621   15.6694    2.6726 O   0  0  0  0  0  0  0  0  0  0  0  0
  1  2  1  0
  2  3  1  0
  3  4  1  0
  4  5  1  0
  5  6  1  6
  6  7  1  0
  5  8  1  0
  8  9  1  0
  9  1  1  0
M  RAD  2   3   2   8   2
M  END
>  <docking_score>  (2) 
-3.0329999999999999

$$$$

     RDKit          3D

  9  9  0  0  0  0  0  0  0  0999 V2000
    7.2271   15.6576    2.6556 C   0  0  0  0  0  0  0  0  0  0  0  0
    6.7379   14.6327    3.4404 O   0  0  0  0  0  0  0  0  0  0  0  0
    7.7241   14.1895    4.2952 C   0  0  0  0  0  3  0  0  0  0  0  0
    8.6432   13.4479    3.5534 O   0  0  0  0  0  0  0  0  0  0  0  0
    9.7583   14.1858    3.2220 C   0  0  2  0  0  0  0  0  0  0  0  0
   10.3547   14.7174    4.5182 C   0  0  0  0  0  0  0  0  0  0  0  0
   11.6871   15.0688    4.3344 O   0  0  0  0  0  0  0  0  0  0  0  0
    9.4483   15.3255    2.2887 C   0  0  0  0  0  3  0  0  0  0  0  0
    8.1737   15.1823    1.7637 O   0  0  0  0  0  0  0  0  0  0  0  0
  1  2  1  0
  2  3  1  0
  3  4  1  0
  4  5  1  0
  5  6  1  1
  6  7  1  0
  5  8  1  0
  8  9  1  0
  9  1  1  0
M  RAD  2   3   2   8   2
M  END
>  <docking_score>  (3) 
-2.907

$$$$
