
     RDKit          3D

 21 20  0  0  0  0  0  0  0  0999 V2000
   14.4813   -6.0824   -6.7098 O   0  0  0  0  0  0  0  0  0  0  0  0
   14.9720   -4.9653   -6.0522 C   0  0  0  0  0  0  0  0  0  0  0  0
   15.5461   -5.3340   -4.7104 C   0  0  0  0  0  3  0  0  0  0  0  0
   16.1705   -6.6179   -4.7150 N   0  0  0  0  0  0  0  0  0  0  0  0
   17.5805   -6.4911   -4.8573 C   0  0  2  0  0  0  0  0  0  0  0  0
   18.2143   -7.7679   -5.4253 C   0  0  0  0  0  0  0  0  0  0  0  0
   17.2208   -8.7267   -5.5554 O   0  0  0  0  0  0  0  0  0  0  0  0
   18.2767   -6.2879   -3.4956 C   0  0  1  0  0  0  0  0  0  0  0  0
   19.2388   -7.3400   -3.4941 O   0  0  0  0  0  0  0  0  0  0  0  0
   19.0133   -4.9593   -3.6451 C   0  0  2  0  0  0  0  0  0  0  0  0
   20.3433   -5.1777   -3.9943 O   0  0  0  0  0  0  0  0  0  0  0  0
   19.0009   -4.3469   -2.3207 N   0  0  0  0  0  0  0  0  0  0  0  0
   18.1580   -3.1975   -2.2955 C   0  0  2  0  0  0  0  0  0  0  0  0
   16.7572   -3.3996   -1.8447 C   0  0  0  0  0  0  0  0  0  0  0  0
   18.1256   -2.5947   -3.6883 C   0  0  0  0  0  0  0  0  0  0  0  0
   16.8978   -2.0267   -3.9308 O   0  0  0  0  0  0  0  0  0  0  0  0
   16.7761   -1.7594   -5.3015 C   0  0  0  0  0  0  0  0  0  0  0  0
   15.7374   -0.7895   -5.4282 O   0  0  0  0  0  0  0  0  0  0  0  0
   14.5422   -1.0658   -4.7732 C   0  0  0  0  0  0  0  0  0  0  0  0
   14.1207   -0.1577   -3.8076 O   0  0  0  0  0  1  0  0  0  0  0  0
   13.8367   -2.0586   -4.9927 O   0  0  0  0  0  0  0  0  0  0  0  0
  1  2  1  0
  2  3  1  0
  3  4  1  0
  4  5  1  0
  5  6  1  1
  6  7  1  0
  5  8  1  0
  8  9  1  6
  8 10  1  0
 10 11  1  1
 10 12  1  0
 12 13  1  0
 13 14  1  6
 13 15  1  0
 15 16  1  0
 16 17  1  0
 17 18  1  0
 18 19  1  0
 19 20  1  0
 19 21  2  0
M  CHG  1  20  -1
M  RAD  1   3   2
M  END
>  <docking_score>  (1) 
-3.194

$$$$

     RDKit          3D

 21 20  0  0  0  0  0  0  0  0999 V2000
   14.0074   -6.1200   -5.2552 O   0  0  0  0  0  0  0  0  0  0  0  0
   15.3256   -6.4559   -5.5210 C   0  0  0  0  0  0  0  0  0  0  0  0
   16.2146   -6.1334   -4.3499 C   0  0  0  0  0  3  0  0  0  0  0  0
   17.5320   -6.6632   -4.4990 N   0  0  0  0  0  0  0  0  0  0  0  0
   18.3923   -5.7081   -5.1091 C   0  0  2  0  0  0  0  0  0  0  0  0
   18.7129   -6.0755   -6.5640 C   0  0  0  0  0  0  0  0  0  0  0  0
   18.5757   -7.4480   -6.7071 O   0  0  0  0  0  0  0  0  0  0  0  0
   19.7682   -5.6513   -4.4135 C   0  0  1  0  0  0  0  0  0  0  0  0
   20.6355   -5.3259   -5.4973 O   0  0  0  0  0  0  0  0  0  0  0  0
   19.6723   -4.4394   -3.4902 C   0  0  2  0  0  0  0  0  0  0  0  0
   19.2146   -4.8220   -2.2322 O   0  0  0  0  0  0  0  0  0  0  0  0
   18.6607   -3.5692   -4.0806 N   0  0  0  0  0  0  0  0  0  0  0  0
   19.2139   -2.3016   -4.4265 C   0  0  2  0  0  0  0  0  0  0  0  0
   19.0739   -1.2108   -3.4281 C   0  0  0  0  0  0  0  0  0  0  0  0
   18.5800   -1.8392   -5.7260 C   0  0  0  0  0  0  0  0  0  0  0  0
   17.6714   -0.8377   -5.4804 O   0  0  0  0  0  0  0  0  0  0  0  0
   16.4780   -1.1211   -6.1592 C   0  0  0  0  0  0  0  0  0  0  0  0
   16.1039   -2.4428   -5.7736 O   0  0  0  0  0  0  0  0  0  0  0  0
   15.1074   -2.5533   -4.8100 C   0  0  0  0  0  0  0  0  0  0  0  0
   15.4869   -2.3976   -3.4809 O   0  0  0  0  0  1  0  0  0  0  0  0
   13.9161   -2.7793   -5.0573 O   0  0  0  0  0  0  0  0  0  0  0  0
  1  2  1  0
  2  3  1  0
  3  4  1  0
  4  5  1  0
  5  6  1  6
  6  7  1  0
  5  8  1  0
  8  9  1  6
  8 10  1  0
 10 11  1  1
 10 12  1  0
 12 13  1  0
 13 14  1  1
 13 15  1  0
 15 16  1  0
 16 17  1  0
 17 18  1  0
 18 19  1  0
 19 20  1  0
 19 21  2  0
M  CHG  1  20  -1
M  RAD  1   3   2
M  END
>  <docking_score>  (2) 
-2.7160000000000002

$$$$

     RDKit          3D

 21 20  0  0  0  0  0  0  0  0999 V2000
   18.7410   -8.0678   -4.2756 O   0  0  0  0  0  0  0  0  0  0  0  0
   18.2648   -7.8077   -5.5511 C   0  0  0  0  0  0  0  0  0  0  0  0
   16.7835   -7.5406   -5.5334 C   0  0  0  0  0  3  0  0  0  0  0  0
   16.4392   -6.3162   -6.1821 N   0  0  0  0  0  0  0  0  0  0  0  0
   16.5944   -5.2154   -5.2941 C   0  0  2  0  0  0  0  0  0  0  0  0
   15.9670   -5.4957   -3.9221 C   0  0  0  0  0  0  0  0  0  0  0  0
   16.9520   -5.3562   -2.9559 O   0  0  0  0  0  0  0  0  0  0  0  0
   15.8579   -3.9600   -5.8056 C   0  0  1  0  0  0  0  0  0  0  0  0
   14.7338   -3.8981   -4.9308 O   0  0  0  0  0  0  0  0  0  0  0  0
   16.7995   -2.8076   -5.4651 C   0  0  2  0  0  0  0  0  0  0  0  0
   16.3472   -2.1276   -4.3374 O   0  0  0  0  0  0  0  0  0  0  0  0
   16.7242   -1.8863   -6.5941 N   0  0  0  0  0  0  0  0  0  0  0  0
   17.9235   -1.9204   -7.3641 C   0  0  2  0  0  0  0  0  0  0  0  0
   17.8356   -2.5180   -8.7211 C   0  0  0  0  0  0  0  0  0  0  0  0
   18.9773   -2.6799   -6.5788 C   0  0  0  0  0  0  0  0  0  0  0  0
   20.1920   -2.0444   -6.6773 O   0  0  0  0  0  0  0  0  0  0  0  0
   20.1143   -0.7996   -6.0374 C   0  0  0  0  0  0  0  0  0  0  0  0
   21.0268   -0.8564   -4.9422 O   0  0  0  0  0  0  0  0  0  0  0  0
   20.4708   -0.9272   -3.6695 C   0  0  0  0  0  0  0  0  0  0  0  0
   21.3440   -1.1126   -2.6027 O   0  0  0  0  0  1  0  0  0  0  0  0
   19.2605   -0.8367   -3.4281 O   0  0  0  0  0  0  0  0  0  0  0  0
  1  2  1  0
  2  3  1  0
  3  4  1  0
  4  5  1  0
  5  6  1  1
  6  7  1  0
  5  8  1  0
  8  9  1  1
  8 10  1  0
 10 11  1  1
 10 12  1  0
 12 13  1  0
 13 14  1  6
 13 15  1  0
 15 16  1  0
 16 17  1  0
 17 18  1  0
 18 19  1  0
 19 20  1  0
 19 21  2  0
M  CHG  1  20  -1
M  RAD  1   3   2
M  END
>  <docking_score>  (3) 
-2.552

$$$$
