
     RDKit          3D

 32 31  0  0  0  0  0  0  0  0999 V2000
   18.4971    5.9547   -2.7384 C   0  0  0  0  0  0  0  0  0  0  0  0
   19.8101    5.2162   -2.9113 C   0  0  0  0  0  0  0  0  0  0  0  0
   20.5741    5.1951   -1.6060 C   0  0  0  0  0  0  0  0  0  0  0  0
   20.6653    5.9153   -3.9459 C   0  0  0  0  0  0  0  0  0  0  0  0
   19.8952    7.1105   -4.5205 C   0  0  0  0  0  0  0  0  0  0  0  0
   19.1629    6.6770   -5.7705 C   0  0  0  0  0  0  0  0  0  0  0  0
   19.8898    5.4455   -6.3075 C   0  0  1  0  0  0  0  0  0  0  0  0
   21.3620    5.6490   -5.9302 C   0  0  0  0  0  0  0  0  0  0  0  0
   19.4106    4.1935   -5.6470 C   0  0  0  0  0  0  0  0  0  0  0  0
   19.3790    3.0153   -6.6059 C   0  0  0  0  0  0  0  0  0  0  0  0
   19.7437    1.7468   -5.8838 C   0  0  0  0  0  0  0  0  0  0  0  0
   20.0912    2.0506   -4.4440 C   0  0  0  0  0  3  0  0  0  0  0  0
   20.1924    0.8070   -3.5976 C   0  0  0  0  0  2  0  0  0  0  0  0
   21.3813   -0.0244   -4.0286 C   0  0  0  0  0  0  0  0  0  0  0  0
   20.9979   -1.4845   -4.0316 C   0  0  0  0  0  3  0  0  0  0  0  0
   20.3571   -1.9126   -5.3285 C   0  0  0  0  0  3  0  0  0  0  0  0
   20.8034   -3.3137   -5.6804 C   0  0  0  0  0  2  0  0  0  0  0  0
   19.6687   -4.2636   -5.4668 C   0  0  1  0  0  0  0  0  0  0  0  0
   18.8311   -4.4069   -6.6962 C   0  0  0  0  0  3  0  0  0  0  0  0
   17.3810   -4.2948   -6.3584 C   0  0  2  0  0  0  0  0  0  0  0  0
   16.7456   -5.5750   -5.9217 C   0  0  0  0  0  0  0  0  0  0  0  0
   16.5732   -3.5164   -7.3457 C   0  0  0  0  0  0  0  0  0  0  0  0
   15.4227   -2.8308   -6.6154 C   0  0  2  0  0  0  0  0  0  0  0  0
   15.6581   -1.3230   -6.5685 C   0  0  2  0  0  0  0  0  0  0  0  0
   16.9033   -1.0295   -5.7566 C   0  0  0  0  0  0  0  0  0  0  0  0
   14.4268   -0.6820   -5.9864 C   0  0  0  0  0  2  0  0  0  0  0  0
   15.3878   -3.3567   -5.2593 N   0  0  0  0  0  0  0  0  0  0  0  0
   20.1049   -5.5919   -4.9051 C   0  0  0  0  0  0  0  0  0  0  0  0
   18.9673   -6.3730   -4.6693 O   0  0  0  0  0  0  0  0  0  0  0  0
   19.2271   -7.6849   -5.0356 C   0  0  0  0  0  0  0  0  0  0  0  0
   18.0462   -8.5805   -4.6546 C   0  0  0  0  0  3  0  0  0  0  0  0
   16.9071   -8.3493   -5.6157 C   0  0  0  0  0  2  0  0  0  0  0  0
  1  2  1  0
  2  3  1  0
  2  4  1  0
  4  5  1  0
  5  6  1  0
  6  7  1  0
  7  8  1  1
  7  9  1  0
  9 10  1  0
 10 11  1  0
 11 12  1  0
 12 13  1  0
 13 14  1  0
 14 15  1  0
 15 16  1  0
 16 17  1  0
 18 17  1  6
 18 19  1  0
 19 20  1  0
 20 21  1  6
 20 22  1  0
 22 23  1  0
 23 24  1  0
 24 25  1  1
 24 26  1  0
 23 27  1  1
 18 28  1  0
 28 29  1  0
 29 30  1  0
 30 31  1  0
 31 32  1  0
M  RAD  8  12   2  13   3  15   2  16   2  17   3  19   2  26   3  31   2
M  RAD  1  32   3
M  END
>  <docking_score>  (1) 
-0.43099999999999999

$$$$

     RDKit          3D

 32 31  0  0  0  0  0  0  0  0999 V2000
   12.6116    1.2412   -4.3378 C   0  0  0  0  0  0  0  0  0  0  0  0
   13.5686    0.1440   -4.7613 C   0  0  0  0  0  0  0  0  0  0  0  0
   13.7007    0.1178   -6.2678 C   0  0  0  0  0  0  0  0  0  0  0  0
   13.0445   -1.2027   -4.3113 C   0  0  0  0  0  0  0  0  0  0  0  0
   13.3024   -2.2425   -5.4086 C   0  0  0  0  0  0  0  0  0  0  0  0
   14.3364   -1.7044   -6.3719 C   0  0  0  0  0  0  0  0  0  0  0  0
   15.4880   -2.7076   -6.3944 C   0  0  1  0  0  0  0  0  0  0  0  0
   15.0165   -3.8834   -5.5306 C   0  0  0  0  0  0  0  0  0  0  0  0
   15.7433   -3.2196   -7.7750 C   0  0  0  0  0  0  0  0  0  0  0  0
   15.3893   -4.6905   -7.9158 C   0  0  0  0  0  0  0  0  0  0  0  0
   15.6375   -5.4118   -6.6191 C   0  0  0  0  0  0  0  0  0  0  0  0
   16.8119   -6.3530   -6.7650 C   0  0  0  0  0  3  0  0  0  0  0  0
   17.5823   -6.1247   -8.0407 C   0  0  0  0  0  2  0  0  0  0  0  0
   18.8201   -6.9952   -8.0678 C   0  0  0  0  0  0  0  0  0  0  0  0
   19.7724   -6.5471   -6.9856 C   0  0  0  0  0  3  0  0  0  0  0  0
   20.6624   -5.4129   -7.4301 C   0  0  0  0  0  3  0  0  0  0  0  0
   20.5906   -4.2842   -6.4266 C   0  0  0  0  0  2  0  0  0  0  0  0
   19.2133   -3.7023   -6.4330 C   0  0  1  0  0  0  0  0  0  0  0  0
   18.5932   -3.7393   -5.0737 C   0  0  0  0  0  3  0  0  0  0  0  0
   18.2025   -2.3655   -4.6383 C   0  0  2  0  0  0  0  0  0  0  0  0
   18.0795   -1.3745   -5.7501 C   0  0  0  0  0  0  0  0  0  0  0  0
   18.9469   -1.8583   -3.4460 C   0  0  0  0  0  0  0  0  0  0  0  0
   19.6327   -3.0314   -2.7527 C   0  0  2  0  0  0  0  0  0  0  0  0
   18.6543   -3.7239   -1.8070 C   0  0  2  0  0  0  0  0  0  0  0  0
   18.3639   -5.1223   -2.3131 C   0  0  0  0  0  0  0  0  0  0  0  0
   17.4153   -2.8735   -1.7217 C   0  0  0  0  0  2  0  0  0  0  0  0
   20.7488   -2.4976   -1.9871 N   0  0  0  0  0  0  0  0  0  0  0  0
   19.1504   -2.3343   -7.0611 C   0  0  0  0  0  0  0  0  0  0  0  0
   19.9035   -2.3489   -8.2412 O   0  0  0  0  0  0  0  0  0  0  0  0
   20.5116   -1.1147   -8.4131 C   0  0  0  0  0  0  0  0  0  0  0  0
   21.3710   -0.7778   -7.1925 C   0  0  0  0  0  3  0  0  0  0  0  0
   20.6128    0.1582   -6.2848 C   0  0  0  0  0  2  0  0  0  0  0  0
  1  2  1  0
  2  3  1  0
  2  4  1  0
  4  5  1  0
  5  6  1  0
  6  7  1  0
  7  8  1  1
  7  9  1  0
  9 10  1  0
 10 11  1  0
 11 12  1  0
 12 13  1  0
 13 14  1  0
 14 15  1  0
 15 16  1  0
 16 17  1  0
 18 17  1  1
 18 19  1  0
 19 20  1  0
 20 21  1  6
 20 22  1  0
 22 23  1  0
 23 24  1  0
 24 25  1  6
 24 26  1  0
 23 27  1  1
 18 28  1  0
 28 29  1  0
 29 30  1  0
 30 31  1  0
 31 32  1  0
M  RAD  8  12   2  13   3  15   2  16   2  17   3  19   2  26   3  31   2
M  RAD  1  32   3
M  END
>  <docking_score>  (2) 
1.0449999999999999

$$$$
