
     RDKit          3D

 11 11  0  0  0  0  0  0  0  0999 V2000
    3.1104   -4.5780   -7.0617 N   0  0  0  0  0  0  0  0  0  0  0  0
    4.3607   -4.3580   -7.1632 C   0  0  0  0  0  0  0  0  0  0  0  0
    4.9795   -3.4268   -8.1285 C   0  0  0  0  0  0  0  0  0  0  0  0
    5.5805   -2.2965   -7.3682 C   0  0  0  0  0  0  0  0  0  0  0  0
    6.0401   -2.4587   -6.0761 C   0  0  0  0  0  0  0  0  0  0  0  0
    6.6005   -1.4254   -5.3529 C   0  0  0  0  0  0  0  0  0  0  0  0
    6.7281   -0.1661   -5.8970 C   0  0  0  0  0  0  0  0  0  0  0  0
    7.2910    0.8977   -5.1886 O   0  0  0  0  0  0  0  0  0  0  0  0
    6.2719    0.0065   -7.1874 C   0  0  0  0  0  0  0  0  0  0  0  0
    6.3832    1.2589   -7.7684 O   0  0  0  0  0  0  0  0  0  0  0  0
    5.7120   -1.0309   -7.9066 C   0  0  0  0  0  0  0  0  0  0  0  0
  1  2  2  0
  2  3  1  0
  3  4  1  0
  4  5  2  0
  5  6  1  0
  6  7  2  0
  7  8  1  0
  7  9  1  0
  9 10  1  0
  9 11  2  0
 11  4  1  0
M  END
>  <docking_score>  (1) 
-5.2270000000000003

$$$$

     RDKit          3D

 11 11  0  0  0  0  0  0  0  0999 V2000
    3.8789   -4.2976   -7.2930 N   0  0  0  0  0  0  0  0  0  0  0  0
    4.9894   -3.7046   -7.4857 C   0  0  0  0  0  0  0  0  0  0  0  0
    5.8494   -3.1531   -6.4189 C   0  0  0  0  0  0  0  0  0  0  0  0
    6.0228   -1.6950   -6.6653 C   0  0  0  0  0  0  0  0  0  0  0  0
    5.6616   -1.1176   -7.8666 C   0  0  0  0  0  0  0  0  0  0  0  0
    5.8134    0.2312   -8.1167 C   0  0  0  0  0  0  0  0  0  0  0  0
    6.3406    1.0747   -7.1634 C   0  0  0  0  0  0  0  0  0  0  0  0
    6.5056    2.4430   -7.3889 O   0  0  0  0  0  0  0  0  0  0  0  0
    6.7047    0.5076   -5.9596 C   0  0  0  0  0  0  0  0  0  0  0  0
    7.2386    1.3240   -4.9763 O   0  0  0  0  0  0  0  0  0  0  0  0
    6.5506   -0.8426   -5.7146 C   0  0  0  0  0  0  0  0  0  0  0  0
  1  2  2  0
  2  3  1  0
  3  4  1  0
  4  5  2  0
  5  6  1  0
  6  7  2  0
  7  8  1  0
  7  9  1  0
  9 10  1  0
  9 11  2  0
 11  4  1  0
M  END
>  <docking_score>  (2) 
-5.0860000000000003

$$$$

     RDKit          3D

 11 11  0  0  0  0  0  0  0  0999 V2000
   14.4183   -7.3409   -4.2971 N   0  0  0  0  0  0  0  0  0  0  0  0
   15.2611   -6.7591   -5.0541 C   0  0  0  0  0  0  0  0  0  0  0  0
   16.3710   -5.9053   -4.5843 C   0  0  0  0  0  0  0  0  0  0  0  0
   15.8661   -4.5105   -4.4568 C   0  0  0  0  0  0  0  0  0  0  0  0
   15.0009   -3.9678   -5.3864 C   0  0  0  0  0  0  0  0  0  0  0  0
   14.5205   -2.6778   -5.2882 C   0  0  0  0  0  0  0  0  0  0  0  0
   14.8890   -1.8611   -4.2415 C   0  0  0  0  0  0  0  0  0  0  0  0
   14.4186   -0.5520   -4.1169 O   0  0  0  0  0  0  0  0  0  0  0  0
   15.7532   -2.3937   -3.3074 C   0  0  0  0  0  0  0  0  0  0  0  0
   16.1465   -1.6027   -2.2406 O   0  0  0  0  0  0  0  0  0  0  0  0
   16.2309   -3.6853   -3.4105 C   0  0  0  0  0  0  0  0  0  0  0  0
  1  2  2  0
  2  3  1  0
  3  4  1  0
  4  5  2  0
  5  6  1  0
  6  7  2  0
  7  8  1  0
  7  9  1  0
  9 10  1  0
  9 11  2  0
 11  4  1  0
M  END
>  <docking_score>  (3) 
-3.839

$$$$
