
     RDKit          3D

  9  8  0  0  0  0  0  0  0  0999 V2000
    6.0165    2.5115   -5.1004 O   0  0  0  0  0  0  0  0  0  0  0  0
    6.6614    1.7570   -5.9487 O   0  0  0  0  0  0  0  0  0  0  0  0
    7.2470    0.6929   -5.2648 C   0  0  0  0  0  3  0  0  0  0  0  0
    7.3234   -0.3688   -6.1507 O   0  0  0  0  0  0  0  0  0  0  0  0
    6.1220   -1.0076   -6.3682 C   0  0  2  0  0  0  0  0  0  0  0  0
    5.9850   -2.3149   -5.6440 C   0  0  0  0  0  0  0  0  0  0  0  0
    4.8272   -2.9317   -6.1088 O   0  0  0  0  0  0  0  0  0  0  0  0
    5.7972   -1.2359   -7.8147 C   0  0  0  0  0  3  0  0  0  0  0  0
    5.3780   -0.0778   -8.4483 O   0  0  0  0  0  0  0  0  0  0  0  0
  1  2  1  0
  2  3  1  0
  3  4  1  0
  4  5  1  0
  5  6  1  1
  6  7  1  0
  5  8  1  0
  8  9  1  0
M  RAD  2   3   2   8   2
M  END
>  <docking_score>  (1) 
-2.9790000000000001

$$$$

     RDKit          3D

  9  8  0  0  0  0  0  0  0  0999 V2000
    5.2627   -3.0046   -5.8434 O   0  0  0  0  0  0  0  0  0  0  0  0
    6.0480   -2.8621   -6.8768 O   0  0  0  0  0  0  0  0  0  0  0  0
    5.6140   -1.7783   -7.6382 C   0  0  0  0  0  3  0  0  0  0  0  0
    6.5540   -0.7724   -7.4891 O   0  0  0  0  0  0  0  0  0  0  0  0
    6.1752    0.2273   -6.6197 C   0  0  2  0  0  0  0  0  0  0  0  0
    5.9690    1.5616   -7.2750 C   0  0  0  0  0  0  0  0  0  0  0  0
    6.3012    2.5411   -6.3439 O   0  0  0  0  0  0  0  0  0  0  0  0
    7.1002    0.4148   -5.4538 C   0  0  0  0  0  3  0  0  0  0  0  0
    7.6336   -0.7832   -5.0082 O   0  0  0  0  0  0  0  0  0  0  0  0
  1  2  1  0
  2  3  1  0
  3  4  1  0
  4  5  1  0
  5  6  1  6
  6  7  1  0
  5  8  1  0
  8  9  1  0
M  RAD  2   3   2   8   2
M  END
>  <docking_score>  (2) 
-2.9550000000000001

$$$$

     RDKit          3D

  9  8  0  0  0  0  0  0  0  0999 V2000
    6.3749   -1.9260   -4.9517 O   0  0  0  0  0  0  0  0  0  0  0  0
    6.3964   -2.6788   -6.0183 O   0  0  0  0  0  0  0  0  0  0  0  0
    5.1990   -2.5239   -6.7148 C   0  0  0  0  0  3  0  0  0  0  0  0
    4.5363   -3.7386   -6.6620 O   0  0  0  0  0  0  0  0  0  0  0  0
    4.3904   -4.3536   -7.8865 C   0  0  2  0  0  0  0  0  0  0  0  0
    3.1551   -5.1979   -8.0032 C   0  0  0  0  0  0  0  0  0  0  0  0
    2.3522   -4.9197   -6.9012 O   0  0  0  0  0  0  0  0  0  0  0  0
    5.5677   -5.1838   -8.3046 C   0  0  0  0  0  3  0  0  0  0  0  0
    5.5635   -6.4365   -7.7138 O   0  0  0  0  0  0  0  0  0  0  0  0
  1  2  1  0
  2  3  1  0
  3  4  1  0
  4  5  1  0
  5  6  1  1
  6  7  1  0
  5  8  1  0
  8  9  1  0
M  RAD  2   3   2   8   2
M  END
>  <docking_score>  (3) 
-2.7360000000000002

$$$$
