
     RDKit          3D

 12 12  0  0  0  0  0  0  0  0999 V2000
    3.8252   -4.3897   -6.9343 C   0  0  0  0  0  0  0  0  0  0  0  0
    2.5998   -4.9188   -7.3948 O   0  0  0  0  0  0  0  0  0  0  0  0
    2.8890   -5.5457   -8.6290 C   0  0  0  0  0  3  0  0  0  0  0  0
    3.7642   -6.5663   -8.3529 O   0  0  0  0  0  0  0  0  0  0  0  0
    5.0722   -6.3324   -8.6673 C   0  0  2  0  0  0  0  0  0  0  0  0
    5.9488   -7.0698   -7.6796 C   0  0  0  0  0  0  0  0  0  0  0  0
    5.4965   -4.9156   -8.7400 C   0  0  0  0  0  3  0  0  0  0  0  0
    4.5565   -3.9157   -8.1716 C   0  0  2  0  0  0  0  0  0  0  0  0
    5.3393   -2.6392   -7.8949 C   0  0  0  0  0  3  0  0  0  0  0  0
    5.8375   -2.6173   -6.4747 C   0  0  0  0  0  0  0  0  0  0  0  0
    6.3259   -1.4614   -6.0410 C   0  0  0  0  0  0  0  0  0  0  0  0
    6.8568   -1.2716   -4.6685 C   0  0  0  0  0  0  0  0  0  0  0  0
  1  2  1  0
  2  3  1  0
  3  4  1  0
  4  5  1  0
  5  6  1  1
  5  7  1  0
  7  8  1  0
  8  9  1  1
  9 10  1  0
 10 11  2  3
 11 12  1  0
  8  1  1  0
M  RAD  3   3   2   7   2   9   2
M  END
>  <docking_score>  (1) 
-4.673

$$$$

     RDKit          3D

 12 12  0  0  0  0  0  0  0  0999 V2000
   16.7691   -3.4446   -4.5536 C   0  0  0  0  0  0  0  0  0  0  0  0
   16.3352   -2.1571   -4.1694 O   0  0  0  0  0  0  0  0  0  0  0  0
   16.2187   -2.1928   -2.7605 C   0  0  0  0  0  3  0  0  0  0  0  0
   17.4793   -2.4265   -2.2704 O   0  0  0  0  0  0  0  0  0  0  0  0
   17.7270   -3.6993   -1.8424 C   0  0  2  0  0  0  0  0  0  0  0  0
   19.1847   -4.0195   -2.0873 C   0  0  0  0  0  0  0  0  0  0  0  0
   16.8839   -4.7715   -2.4189 C   0  0  0  0  0  3  0  0  0  0  0  0
   16.0776   -4.4068   -3.6120 C   0  0  2  0  0  0  0  0  0  0  0  0
   15.6874   -5.6936   -4.3266 C   0  0  0  0  0  3  0  0  0  0  0  0
   15.2937   -5.4129   -5.7520 C   0  0  0  0  0  0  0  0  0  0  0  0
   14.0333   -5.6755   -6.0761 C   0  0  0  0  0  0  0  0  0  0  0  0
   13.4854   -5.4554   -7.4375 C   0  0  0  0  0  0  0  0  0  0  0  0
  1  2  1  0
  2  3  1  0
  3  4  1  0
  4  5  1  0
  5  6  1  6
  5  7  1  0
  7  8  1  0
  8  9  1  6
  9 10  1  0
 10 11  2  3
 11 12  1  0
  8  1  1  0
M  RAD  3   3   2   7   2   9   2
M  END
>  <docking_score>  (2) 
-3.9660000000000002

$$$$

     RDKit          3D

 12 12  0  0  0  0  0  0  0  0999 V2000
   16.8985   -4.4281   -4.4882 C   0  0  0  0  0  0  0  0  0  0  0  0
   15.9327   -5.0968   -5.2714 O   0  0  0  0  0  0  0  0  0  0  0  0
   14.7870   -4.2679   -5.2633 C   0  0  0  0  0  3  0  0  0  0  0  0
   15.1507   -3.0932   -5.8728 O   0  0  0  0  0  0  0  0  0  0  0  0
   15.3813   -2.0353   -5.0408 C   0  0  2  0  0  0  0  0  0  0  0  0
   16.4505   -1.1586   -5.6538 C   0  0  0  0  0  0  0  0  0  0  0  0
   15.7492   -2.3557   -3.6427 C   0  0  0  0  0  3  0  0  0  0  0  0
   16.1279   -3.7653   -3.3669 C   0  0  2  0  0  0  0  0  0  0  0  0
   16.9155   -3.7939   -2.0639 C   0  0  0  0  0  3  0  0  0  0  0  0
   18.3903   -3.6537   -2.3300 C   0  0  0  0  0  0  0  0  0  0  0  0
   19.1663   -3.4876   -1.2656 C   0  0  0  0  0  0  0  0  0  0  0  0
   20.6394   -3.3339   -1.3546 C   0  0  0  0  0  0  0  0  0  0  0  0
  1  2  1  0
  2  3  1  0
  3  4  1  0
  4  5  1  0
  5  6  1  6
  5  7  1  0
  7  8  1  0
  8  9  1  1
  9 10  1  0
 10 11  2  3
 11 12  1  0
  8  1  1  0
M  RAD  3   3   2   7   2   9   2
M  END
>  <docking_score>  (3) 
-3.762

$$$$
