
     RDKit          3D

 21 20  0  0  0  0  0  0  0  0999 V2000
   17.0139   -2.4096   -7.9519 C   0  0  0  0  0  0  0  0  0  0  0  0
   15.8201   -3.1307   -8.0772 O   0  0  0  0  0  0  0  0  0  0  0  0
   16.0520   -4.3694   -7.4620 C   0  0  0  0  0  3  0  0  0  0  0  0
   15.2382   -4.5006   -6.1947 C   0  0  0  0  0  0  0  0  0  0  0  0
   15.7327   -5.7015   -5.4573 C   0  0  0  0  0  0  0  0  0  0  0  0
   17.1629   -5.6732   -5.0640 C   0  0  2  0  0  0  0  0  0  0  0  0
   17.9482   -6.6194   -5.7073 O   0  0  0  0  0  0  0  0  0  0  0  0
   17.2679   -7.7387   -6.1151 C   0  0  0  0  0  0  0  0  0  0  0  0
   17.4835   -8.8472   -5.3096 O   0  0  0  0  0  0  0  0  0  0  0  0
   17.4223   -5.7877   -3.5821 C   0  0  2  0  0  0  0  0  0  0  0  0
   16.3907   -4.9530   -2.8568 C   0  0  0  0  0  3  0  0  0  0  0  0
   17.0360   -3.9512   -1.9178 C   0  0  0  0  0  0  0  0  0  0  0  0
   16.4851   -2.5780   -2.1909 C   0  0  0  0  0  0  0  0  0  0  0  0
   16.2858   -2.3129   -3.6716 C   0  0  0  0  0  0  0  0  0  0  0  0
   15.0713   -1.3993   -3.8810 C   0  0  0  0  0  0  0  0  0  0  0  0
   15.2206   -0.8600   -5.1706 O   0  0  0  0  0  0  0  0  0  0  0  0
   14.0124   -0.1877   -5.4394 C   0  0  0  0  0  3  0  0  0  0  0  0
   13.5914    0.3734   -4.2336 O   0  0  0  0  0  0  0  0  0  0  0  0
   19.0998   -5.0923   -3.3192 S   0  0  0  0  0  0  0  0  0  0  0  0
   19.5545   -3.6246   -4.7518 S   0  0  0  0  0  0  0  0  0  0  0  0
   20.0573   -2.3245   -4.1247 O   0  0  0  0  0  0  0  0  0  0  0  0
  1  2  1  0
  2  3  1  0
  3  4  1  0
  4  5  1  0
  6  5  1  1
  6  7  1  0
  7  8  1  0
  8  9  1  0
  6 10  1  0
 10 11  1  1
 11 12  1  0
 12 13  1  0
 13 14  1  0
 14 15  1  0
 15 16  1  0
 16 17  1  0
 17 18  1  0
 10 19  1  0
 19 20  1  0
 20 21  2  0
M  RAD  3   3   2  11   2  17   2
M  END
>  <docking_score>  (1) 
-3.238

$$$$

     RDKit          3D

 21 20  0  0  0  0  0  0  0  0999 V2000
   15.8511   -6.3604   -6.2763 C   0  0  0  0  0  0  0  0  0  0  0  0
   15.6654   -4.9812   -6.1214 O   0  0  0  0  0  0  0  0  0  0  0  0
   15.1808   -4.8018   -4.8178 C   0  0  0  0  0  3  0  0  0  0  0  0
   16.1473   -5.3684   -3.8026 C   0  0  0  0  0  0  0  0  0  0  0  0
   17.2030   -4.3415   -3.5549 C   0  0  0  0  0  0  0  0  0  0  0  0
   18.5836   -4.8610   -3.3963 C   0  0  2  0  0  0  0  0  0  0  0  0
   19.1628   -4.5706   -2.1692 O   0  0  0  0  0  0  0  0  0  0  0  0
   18.7369   -3.3950   -1.6049 C   0  0  0  0  0  0  0  0  0  0  0  0
   19.6856   -2.3836   -1.6392 O   0  0  0  0  0  0  0  0  0  0  0  0
   19.5527   -4.4443   -4.4750 C   0  0  2  0  0  0  0  0  0  0  0  0
   18.7804   -3.7004   -5.5414 C   0  0  0  0  0  3  0  0  0  0  0  0
   19.4045   -2.3527   -5.8517 C   0  0  0  0  0  0  0  0  0  0  0  0
   18.3816   -1.2670   -5.6548 C   0  0  0  0  0  0  0  0  0  0  0  0
   17.0191   -1.6416   -6.2077 C   0  0  0  0  0  0  0  0  0  0  0  0
   15.9198   -1.2066   -5.2301 C   0  0  0  0  0  0  0  0  0  0  0  0
   14.7230   -1.2382   -5.9670 O   0  0  0  0  0  0  0  0  0  0  0  0
   14.0300   -0.0652   -5.6095 C   0  0  0  0  0  3  0  0  0  0  0  0
   13.5556   -0.2619   -4.3125 O   0  0  0  0  0  0  0  0  0  0  0  0
   20.2335   -6.0055   -5.1574 S   0  0  0  0  0  0  0  0  0  0  0  0
   19.4649   -7.6816   -4.1507 S   0  0  0  0  0  0  0  0  0  0  0  0
   18.3991   -8.4186   -4.9612 O   0  0  0  0  0  0  0  0  0  0  0  0
  1  2  1  0
  2  3  1  0
  3  4  1  0
  4  5  1  0
  6  5  1  6
  6  7  1  0
  7  8  1  0
  8  9  1  0
  6 10  1  0
 10 11  1  6
 11 12  1  0
 12 13  1  0
 13 14  1  0
 14 15  1  0
 15 16  1  0
 16 17  1  0
 17 18  1  0
 10 19  1  0
 19 20  1  0
 20 21  2  0
M  RAD  3   3   2  11   2  17   2
M  END
>  <docking_score>  (2) 
-2.7999999999999998

$$$$

     RDKit          3D

 21 20  0  0  0  0  0  0  0  0999 V2000
   14.6804   -0.0466   -5.4541 C   0  0  0  0  0  0  0  0  0  0  0  0
   14.8142   -1.1403   -4.5898 O   0  0  0  0  0  0  0  0  0  0  0  0
   15.1269   -2.2384   -5.4038 C   0  0  0  0  0  3  0  0  0  0  0  0
   14.0557   -3.3010   -5.3075 C   0  0  0  0  0  0  0  0  0  0  0  0
   14.7331   -4.6319   -5.2948 C   0  0  0  0  0  0  0  0  0  0  0  0
   16.0816   -4.6752   -5.9120 C   0  0  2  0  0  0  0  0  0  0  0  0
   16.0794   -5.0023   -7.2606 O   0  0  0  0  0  0  0  0  0  0  0  0
   14.9573   -5.6707   -7.6803 C   0  0  0  0  0  0  0  0  0  0  0  0
   14.3058   -5.0570   -8.7400 O   0  0  0  0  0  0  0  0  0  0  0  0
   17.0744   -5.5760   -5.2197 C   0  0  2  0  0  0  0  0  0  0  0  0
   17.6532   -4.8234   -4.0425 C   0  0  0  0  0  3  0  0  0  0  0  0
   17.0598   -5.2926   -2.7274 C   0  0  0  0  0  0  0  0  0  0  0  0
   17.3378   -4.2722   -1.6572 C   0  0  0  0  0  0  0  0  0  0  0  0
   18.0771   -3.0576   -2.1867 C   0  0  0  0  0  0  0  0  0  0  0  0
   19.4882   -3.0013   -1.5875 C   0  0  0  0  0  0  0  0  0  0  0  0
   20.1902   -2.0586   -2.3587 O   0  0  0  0  0  0  0  0  0  0  0  0
   20.0949   -0.8458   -1.6487 C   0  0  0  0  0  3  0  0  0  0  0  0
   21.2181   -0.7771   -0.8243 O   0  0  0  0  0  0  0  0  0  0  0  0
   18.3824   -5.9156   -6.4608 S   0  0  0  0  0  0  0  0  0  0  0  0
   20.1151   -6.6864   -5.5570 S   0  0  0  0  0  0  0  0  0  0  0  0
   19.9656   -8.1521   -5.1500 O   0  0  0  0  0  0  0  0  0  0  0  0
  1  2  1  0
  2  3  1  0
  3  4  1  0
  4  5  1  0
  6  5  1  1
  6  7  1  0
  7  8  1  0
  8  9  1  0
  6 10  1  0
 10 11  1  1
 11 12  1  0
 12 13  1  0
 13 14  1  0
 14 15  1  0
 15 16  1  0
 16 17  1  0
 17 18  1  0
 10 19  1  0
 19 20  1  0
 20 21  2  0
M  RAD  3   3   2  11   2  17   2
M  END
>  <docking_score>  (3) 
-2.5800000000000001

$$$$
