
     RDKit          3D

 26 27  0  0  0  0  0  0  0  0999 V2000
   14.2162   -5.3654   -8.1871 C   0  0  0  0  0  0  0  0  0  0  0  0
   14.3836   -4.3789   -7.1942 O   0  0  0  0  0  0  0  0  0  0  0  0
   13.7969   -4.9985   -5.9996 C   0  0  0  0  0  3  0  0  0  0  0  0
   14.6815   -4.6033   -4.9941 O   0  0  0  0  0  0  0  0  0  0  0  0
   15.5564   -5.5541   -4.5687 C   0  0  2  0  0  0  0  0  0  0  0  0
   14.9409   -6.9436   -4.7860 C   0  0  0  0  0  0  0  0  0  0  0  0
   16.2132   -5.4636   -3.2711 C   0  0  0  0  0  3  0  0  0  0  0  0
   17.4506   -4.6808   -3.0808 C   0  0  1  0  0  0  0  0  0  0  0  0
   18.5756   -5.5492   -2.6944 N   0  0  0  0  0  0  0  0  0  0  0  0
   18.6959   -6.7099   -3.5408 C   0  0  0  0  0  2  0  0  0  0  0  0
   17.8483   -3.7952   -4.2698 C   0  0  1  0  0  0  0  0  0  0  0  0
   17.4436   -2.3956   -4.0014 C   0  0  2  0  0  0  0  0  0  0  0  0
   16.3055   -2.2626   -3.2099 O   0  0  0  0  0  0  0  0  0  0  0  0
   17.4286   -1.4887   -5.1771 C   0  0  2  0  0  0  0  0  0  0  0  0
   16.2638   -1.5675   -6.0806 C   0  0  0  0  0  0  0  0  0  0  0  0
   15.2795   -0.6432   -5.9613 O   0  0  0  0  0  0  0  0  0  0  0  0
   18.7474   -1.5295   -5.9275 C   0  0  2  0  0  0  0  0  0  0  0  0
   18.4457   -1.6472   -7.2966 O   0  0  0  0  0  0  0  0  0  0  0  0
   19.6167   -2.6607   -5.5115 C   0  0  2  0  0  0  0  0  0  0  0  0
   19.5332   -3.6309   -6.5046 O   0  0  0  0  0  0  0  0  0  0  0  0
   19.3055   -3.2717   -4.1694 C   0  0  1  0  0  0  0  0  0  0  0  0
   18.7191   -2.1534   -3.2280 C   0  0  1  0  0  0  0  0  0  0  0  0
   19.1969   -0.8780   -3.7498 O   0  0  0  0  0  0  0  0  0  0  0  0
   19.8787   -0.3550   -2.7727 N   0  0  0  0  0  0  0  0  0  0  0  0
   20.8919    0.5606   -2.8893 C   0  0  0  0  0  3  0  0  0  0  0  0
   20.8619    1.3671   -4.1898 C   0  0  0  0  0  2  0  0  0  0  0  0
  1  2  1  0
  2  3  1  0
  3  4  1  0
  4  5  1  0
  5  6  1  1
  5  7  1  0
  8  7  1  6
  8  9  1  0
  9 10  1  0
 11  8  1  1
 11 12  1  0
 12 13  1  1
 12 14  1  0
 14 15  1  6
 15 16  1  0
 14 17  1  0
 17 18  1  6
 17 19  1  0
 19 20  1  6
 21 19  1  6
 21 22  1  0
 22 23  1  6
 23 24  1  0
 24 25  1  0
 25 26  1  0
 21 11  1  0
 22 12  1  0
M  RAD  5   3   2   7   2  10   3  25   2  26   3
M  END
>  <docking_score>  (1) 
-4.0039999999999996

$$$$

     RDKit          3D

 26 27  0  0  0  0  0  0  0  0999 V2000
   20.2893   -4.9820   -8.7378 C   0  0  0  0  0  0  0  0  0  0  0  0
   20.0079   -5.0635   -7.3589 O   0  0  0  0  0  0  0  0  0  0  0  0
   19.2264   -6.3011   -7.2460 C   0  0  0  0  0  3  0  0  0  0  0  0
   18.3044   -6.1673   -8.2861 O   0  0  0  0  0  0  0  0  0  0  0  0
   17.0142   -6.4656   -7.9750 C   0  0  2  0  0  0  0  0  0  0  0  0
   16.0765   -5.5207   -8.7395 C   0  0  0  0  0  0  0  0  0  0  0  0
   16.5806   -6.6384   -6.5946 C   0  0  0  0  0  3  0  0  0  0  0  0
   15.9513   -5.5392   -5.8357 C   0  0  1  0  0  0  0  0  0  0  0  0
   14.6324   -5.9382   -5.3159 N   0  0  0  0  0  0  0  0  0  0  0  0
   13.5456   -5.4421   -6.1228 C   0  0  0  0  0  2  0  0  0  0  0  0
   16.8113   -4.9537   -4.7070 C   0  0  1  0  0  0  0  0  0  0  0  0
   17.0056   -3.5028   -4.9349 C   0  0  2  0  0  0  0  0  0  0  0  0
   17.0220   -3.1232   -6.2747 O   0  0  0  0  0  0  0  0  0  0  0  0
   18.0908   -2.8632   -4.1488 C   0  0  2  0  0  0  0  0  0  0  0  0
   19.4746   -3.0424   -4.6305 C   0  0  0  0  0  0  0  0  0  0  0  0
   20.1665   -1.9557   -5.0523 O   0  0  0  0  0  0  0  0  0  0  0  0
   17.9510   -3.1575   -2.6662 C   0  0  2  0  0  0  0  0  0  0  0  0
   19.2210   -3.5361   -2.1938 O   0  0  0  0  0  0  0  0  0  0  0  0
   16.9720   -4.2382   -2.3793 C   0  0  2  0  0  0  0  0  0  0  0  0
   17.7003   -5.3856   -2.0834 O   0  0  0  0  0  0  0  0  0  0  0  0
   15.9746   -4.5303   -3.4708 C   0  0  1  0  0  0  0  0  0  0  0  0
   15.6866   -3.1996   -4.2625 C   0  0  1  0  0  0  0  0  0  0  0  0
   16.0092   -2.1005   -3.3597 O   0  0  0  0  0  0  0  0  0  0  0  0
   15.0697   -1.2224   -3.5581 N   0  0  0  0  0  0  0  0  0  0  0  0
   14.1893   -1.1993   -4.6082 C   0  0  0  0  0  3  0  0  0  0  0  0
   14.1919    0.1104   -5.4003 C   0  0  0  0  0  2  0  0  0  0  0  0
  1  2  1  0
  2  3  1  0
  3  4  1  0
  4  5  1  0
  5  6  1  1
  5  7  1  0
  8  7  1  1
  8  9  1  0
  9 10  1  0
 11  8  1  6
 11 12  1  0
 12 13  1  6
 12 14  1  0
 14 15  1  6
 15 16  1  0
 14 17  1  0
 17 18  1  6
 17 19  1  0
 19 20  1  6
 21 19  1  1
 21 22  1  0
 22 23  1  1
 23 24  1  0
 24 25  1  0
 25 26  1  0
 21 11  1  0
 22 12  1  0
M  RAD  5   3   2   7   2  10   3  25   2  26   3
M  END
>  <docking_score>  (2) 
-3.911

$$$$

     RDKit          3D

 26 27  0  0  0  0  0  0  0  0999 V2000
   20.6383   -0.8592   -1.1298 C   0  0  0  0  0  0  0  0  0  0  0  0
   19.6399   -1.8146   -1.4082 O   0  0  0  0  0  0  0  0  0  0  0  0
   20.1832   -3.0498   -0.8300 C   0  0  0  0  0  3  0  0  0  0  0  0
   20.5213   -3.7872   -1.9666 O   0  0  0  0  0  0  0  0  0  0  0  0
   19.5450   -3.9064   -2.9063 C   0  0  2  0  0  0  0  0  0  0  0  0
   18.9451   -5.3179   -2.8384 C   0  0  0  0  0  0  0  0  0  0  0  0
   19.7557   -3.4870   -4.2858 C   0  0  0  0  0  3  0  0  0  0  0  0
   18.8858   -2.4852   -4.9336 C   0  0  1  0  0  0  0  0  0  0  0  0
   19.6761   -1.3732   -5.4884 N   0  0  0  0  0  0  0  0  0  0  0  0
   19.7381   -0.2399   -4.5996 C   0  0  0  0  0  2  0  0  0  0  0  0
   17.9345   -3.0442   -6.0008 C   0  0  1  0  0  0  0  0  0  0  0  0
   16.5423   -2.9962   -5.4966 C   0  0  2  0  0  0  0  0  0  0  0  0
   16.4199   -3.1397   -4.1168 O   0  0  0  0  0  0  0  0  0  0  0  0
   15.5540   -3.8144   -6.2440 C   0  0  2  0  0  0  0  0  0  0  0  0
   15.5207   -5.2632   -5.9628 C   0  0  0  0  0  0  0  0  0  0  0  0
   14.4302   -5.7859   -5.3505 O   0  0  0  0  0  0  0  0  0  0  0  0
   15.5947   -3.5140   -7.7313 C   0  0  2  0  0  0  0  0  0  0  0  0
   15.6021   -4.7480   -8.4069 O   0  0  0  0  0  0  0  0  0  0  0  0
   16.7872   -2.7221   -8.1306 C   0  0  2  0  0  0  0  0  0  0  0  0
   17.6799   -3.5996   -8.7370 O   0  0  0  0  0  0  0  0  0  0  0  0
   17.4792   -1.9695   -7.0233 C   0  0  1  0  0  0  0  0  0  0  0  0
   16.4079   -1.5590   -5.9442 C   0  0  1  0  0  0  0  0  0  0  0  0
   15.1191   -1.5337   -6.6263 O   0  0  0  0  0  0  0  0  0  0  0  0
   14.5101   -0.4895   -6.1448 N   0  0  0  0  0  0  0  0  0  0  0  0
   13.5236   -0.4926   -5.1934 C   0  0  0  0  0  3  0  0  0  0  0  0
   13.9178    0.1852   -3.8789 C   0  0  0  0  0  2  0  0  0  0  0  0
  1  2  1  0
  2  3  1  0
  3  4  1  0
  4  5  1  0
  5  6  1  6
  5  7  1  0
  8  7  1  6
  8  9  1  0
  9 10  1  0
 11  8  1  1
 11 12  1  0
 12 13  1  1
 12 14  1  0
 14 15  1  6
 15 16  1  0
 14 17  1  0
 17 18  1  6
 17 19  1  0
 19 20  1  1
 21 19  1  6
 21 22  1  0
 22 23  1  6
 23 24  1  0
 24 25  1  0
 25 26  1  0
 21 11  1  0
 22 12  1  0
M  RAD  5   3   2   7   2  10   3  25   2  26   3
M  END
>  <docking_score>  (3) 
-3.8479999999999999

$$$$
