
     RDKit          3D

 22 22  0  0  0  0  0  0  0  0999 V2000
    6.5336   -1.4099   25.3710 C   0  0  0  0  0  0  0  0  0  0  0  0
    5.9312   -0.4283   24.6898 C   0  0  0  0  0  0  0  0  0  0  0  0
    5.6615    0.8951   25.1844 C   0  0  0  0  0  0  0  0  0  0  0  0
    4.4848    1.3016   25.2968 O   0  0  0  0  0  0  0  0  0  0  0  0
    6.7563    1.7215   25.5383 N   0  0  0  0  0  0  0  0  0  0  0  0
    8.0940    1.4746   25.2357 C   0  0  0  0  0  0  0  0  0  0  0  0
    8.6950    1.4109   24.0967 C   0  0  0  0  0  0  0  0  0  0  0  0
    8.1590    1.5790   22.7477 C   0  0  1  0  0  0  0  0  0  0  0  0
    9.0051    2.6507   22.0530 C   0  0  0  0  0  0  0  0  0  0  0  0
    8.4237    0.3423   21.9907 N   0  0  0  0  0  0  0  0  0  0  0  0
    7.6905   -0.8010   22.4545 C   0  0  0  0  0  0  0  0  0  0  0  0
    8.2566   -1.6254   23.2551 N   0  0  0  0  0  0  0  0  0  0  0  0
    7.6194   -2.7835   23.7719 C   0  0  0  0  0  0  0  0  0  0  0  0
    6.7727   -2.7207   24.8028 C   0  0  0  0  0  0  0  0  0  0  0  0
    6.2045   -3.9419   25.2341 N   0  0  0  0  0  0  0  0  0  0  0  0
    6.9453   -5.0157   25.7648 C   0  0  0  0  0  0  0  0  0  0  0  0
    7.7134   -5.7943   24.9967 C   0  0  0  0  0  0  0  0  0  0  0  0
    8.4565   -6.8887   25.5966 C   0  0  0  0  0  0  0  0  0  0  0  0
    8.7585   -7.9173   24.8293 C   0  0  0  0  0  0  0  0  0  0  0  0
    9.1851   -8.9505   24.1578 C   0  0  0  0  0  0  0  0  0  0  0  0
    9.5799   -8.7450   22.8081 N   0  0  0  0  0  0  0  0  0  0  0  0
    9.6769   -7.5487   22.3165 C   0  0  0  0  0  0  0  0  0  0  0  0
  1  2  2  3
  2  3  1  0
  3  4  2  0
  3  5  1  0
  5  6  1  0
  6  7  2  3
  7  8  1  0
  8  9  1  6
  8 10  1  0
 10 11  1  0
 11 12  2  3
 12 13  1  0
 13 14  2  3
 14 15  1  0
 15 16  1  0
 16 17  2  3
 17 18  1  0
 18 19  2  0
 19 20  2  0
 20 21  1  0
 21 22  2  0
 14  1  1  0
M  END
>  <docking_score>  (1) 
-6.1840000000000002

$$$$

     RDKit          3D

 22 22  0  0  0  0  0  0  0  0999 V2000
    7.5820   -2.5747   23.3072 C   0  0  0  0  0  0  0  0  0  0  0  0
    8.8187   -2.1308   23.0541 C   0  0  0  0  0  0  0  0  0  0  0  0
    9.5156   -2.2530   21.8018 C   0  0  0  0  0  0  0  0  0  0  0  0
   10.5723   -2.9164   21.7271 O   0  0  0  0  0  0  0  0  0  0  0  0
    8.9778   -1.6060   20.6621 N   0  0  0  0  0  0  0  0  0  0  0  0
    7.9579   -0.6564   20.6704 C   0  0  0  0  0  0  0  0  0  0  0  0
    7.9220    0.5268   21.1817 C   0  0  0  0  0  0  0  0  0  0  0  0
    8.9497    1.2553   21.9222 C   0  0  1  0  0  0  0  0  0  0  0  0
    9.1435    2.6043   21.2226 C   0  0  0  0  0  0  0  0  0  0  0  0
    8.4058    1.5951   23.2494 N   0  0  0  0  0  0  0  0  0  0  0  0
    8.1809    0.4626   24.1018 C   0  0  0  0  0  0  0  0  0  0  0  0
    7.0062   -0.0432   24.1743 N   0  0  0  0  0  0  0  0  0  0  0  0
    6.6799   -1.1619   24.9845 C   0  0  0  0  0  0  0  0  0  0  0  0
    6.9440   -2.4126   24.5975 C   0  0  0  0  0  0  0  0  0  0  0  0
    6.5667   -3.4461   25.4861 N   0  0  0  0  0  0  0  0  0  0  0  0
    7.0712   -4.7598   25.4318 C   0  0  0  0  0  0  0  0  0  0  0  0
    6.3358   -5.7830   24.9862 C   0  0  0  0  0  0  0  0  0  0  0  0
    6.9063   -7.1183   24.9517 C   0  0  0  0  0  0  0  0  0  0  0  0
    7.7448   -7.4013   23.9745 C   0  0  0  0  0  0  0  0  0  0  0  0
    8.6444   -7.7770   23.1086 C   0  0  0  0  0  0  0  0  0  0  0  0
    9.5875   -6.8079   22.6717 N   0  0  0  0  0  0  0  0  0  0  0  0
    9.4043   -6.1484   21.5700 C   0  0  0  0  0  0  0  0  0  0  0  0
  1  2  2  3
  2  3  1  0
  3  4  2  0
  3  5  1  0
  5  6  1  0
  6  7  2  3
  7  8  1  0
  8  9  1  6
  8 10  1  0
 10 11  1  0
 11 12  2  3
 12 13  1  0
 13 14  2  3
 14 15  1  0
 15 16  1  0
 16 17  2  3
 17 18  1  0
 18 19  2  0
 19 20  2  0
 20 21  1  0
 21 22  2  0
 14  1  1  0
M  END
>  <docking_score>  (2) 
-6.069

$$$$

     RDKit          3D

 22 22  0  0  0  0  0  0  0  0999 V2000
    8.9047   -0.4337   19.9243 C   0  0  0  0  0  0  0  0  0  0  0  0
    8.3707   -1.4428   19.2263 C   0  0  0  0  0  0  0  0  0  0  0  0
    8.5957   -1.7113   17.8313 C   0  0  0  0  0  0  0  0  0  0  0  0
    7.6480   -1.6688   17.0173 O   0  0  0  0  0  0  0  0  0  0  0  0
    9.9102   -2.0238   17.4056 N   0  0  0  0  0  0  0  0  0  0  0  0
   10.9837   -2.3336   18.2385 C   0  0  0  0  0  0  0  0  0  0  0  0
   11.1601   -3.3288   19.0390 C   0  0  0  0  0  0  0  0  0  0  0  0
   10.2817   -4.4597   19.3302 C   0  0  1  0  0  0  0  0  0  0  0  0
   11.0948   -5.7376   19.1005 C   0  0  0  0  0  0  0  0  0  0  0  0
    9.9898   -4.4546   20.7750 N   0  0  0  0  0  0  0  0  0  0  0  0
    9.1902   -3.3455   21.2109 C   0  0  0  0  0  0  0  0  0  0  0  0
    9.7661   -2.3175   21.7136 N   0  0  0  0  0  0  0  0  0  0  0  0
    9.0678   -1.1702   22.1724 C   0  0  0  0  0  0  0  0  0  0  0  0
    8.6314   -0.2285   21.3320 C   0  0  0  0  0  0  0  0  0  0  0  0
    7.9544    0.8722   21.9066 N   0  0  0  0  0  0  0  0  0  0  0  0
    8.5949    2.0245   22.4018 C   0  0  0  0  0  0  0  0  0  0  0  0
    9.9030    2.2373   22.2289 C   0  0  0  0  0  0  0  0  0  0  0  0
   10.5126    3.4436   22.7609 C   0  0  0  0  0  0  0  0  0  0  0  0
   10.8716    4.3781   21.9031 C   0  0  0  0  0  0  0  0  0  0  0  0
   11.1953    5.4051   21.1676 C   0  0  0  0  0  0  0  0  0  0  0  0
   10.3744    5.7004   20.0458 N   0  0  0  0  0  0  0  0  0  0  0  0
    9.4292    4.8911   19.6798 C   0  0  0  0  0  0  0  0  0  0  0  0
  1  2  2  3
  2  3  1  0
  3  4  2  0
  3  5  1  0
  5  6  1  0
  6  7  2  3
  7  8  1  0
  8  9  1  1
  8 10  1  0
 10 11  1  0
 11 12  2  3
 12 13  1  0
 13 14  2  3
 14 15  1  0
 15 16  1  0
 16 17  2  3
 17 18  1  0
 18 19  2  0
 19 20  2  0
 20 21  1  0
 21 22  2  0
 14  1  1  0
M  END
>  <docking_score>  (3) 
-6.0679999999999996

$$$$
