
     RDKit          3D

 25 26  0  0  0  0  0  0  0  0999 V2000
   15.1072   -2.6187   -7.5941 C   0  0  0  0  0  0  0  0  0  0  0  0
   15.6228   -1.5582   -6.6854 C   0  0  1  0  0  0  0  0  0  0  0  0
   14.6035   -0.7050   -6.0309 C   0  0  0  0  0  0  0  0  0  0  0  0
   14.3873   -0.9152   -4.5761 C   0  0  2  0  0  0  0  0  0  0  0  0
   14.2998    0.3650   -3.9786 O   0  0  0  0  0  0  0  0  0  0  0  0
   15.4589   -1.6592   -3.8560 C   0  0  2  0  0  0  0  0  0  0  0  0
   15.4082   -1.3800   -2.5114 O   0  0  0  0  0  0  0  0  0  0  0  0
   16.7896   -1.2408   -4.4989 C   0  0  1  0  0  0  0  0  0  0  0  0
   17.8553   -1.6849   -3.7519 O   0  0  0  0  0  0  0  0  0  0  0  0
   16.7986   -1.9367   -5.8484 C   0  0  1  0  0  0  0  0  0  0  0  0
   16.7032   -3.3683   -5.5476 N   0  0  0  0  0  0  0  0  0  0  0  0
   17.7858   -4.0517   -6.1858 C   0  0  0  0  0  3  0  0  0  0  0  0
   17.5498   -5.5461   -6.2156 C   0  0  1  0  0  0  0  0  0  0  0  0
   16.0725   -5.7815   -5.9778 C   0  0  0  0  0  0  0  0  0  0  0  0
   15.7754   -6.0546   -4.6531 O   0  0  0  0  0  0  0  0  0  0  0  0
   14.7274   -6.9492   -4.4912 C   0  0  0  0  0  0  0  0  0  0  0  0
   17.9436   -6.0113   -7.4668 O   0  0  0  0  0  0  0  0  0  0  0  0
   17.5884   -7.2524   -7.6744 O   0  0  0  0  0  0  0  0  0  0  0  0
   17.5730   -8.0358   -6.5331 C   0  0  1  0  0  0  0  0  0  0  0  0
   17.7221   -9.3729   -6.9200 O   0  0  0  0  0  0  0  0  0  0  0  0
   18.7171   -7.5974   -5.6425 C   0  0  2  0  0  0  0  0  0  0  0  0
   18.9467   -8.4894   -4.5979 O   0  0  0  0  0  0  0  0  0  0  0  0
   18.3916   -6.1962   -5.1417 C   0  0  1  0  0  0  0  0  0  0  0  0
   19.5900   -5.5182   -5.0094 O   0  0  0  0  0  0  0  0  0  0  0  0
   19.9919   -5.6404   -3.7776 O   0  0  0  0  0  0  0  0  0  0  0  0
  2  1  1  1
  2  3  1  0
  3  4  1  0
  4  5  1  1
  4  6  1  0
  6  7  1  1
  6  8  1  0
  8  9  1  1
  8 10  1  0
 10 11  1  1
 11 12  1  0
 13 12  1  6
 13 14  1  0
 14 15  1  0
 15 16  1  0
 13 17  1  0
 17 18  1  0
 18 19  1  0
 19 20  1  6
 19 21  1  0
 21 22  1  1
 21 23  1  0
 23 24  1  6
 24 25  1  0
 10  2  1  0
 23 13  1  0
M  RAD  1  12   2
M  END
>  <docking_score>  (1) 
-4.3819999999999997

$$$$

     RDKit          3D

 25 26  0  0  0  0  0  0  0  0999 V2000
    4.4733    8.0335    2.8929 C   0  0  0  0  0  0  0  0  0  0  0  0
    3.4059    7.9433    3.9267 C   0  0  1  0  0  0  0  0  0  0  0  0
    3.2856    6.6456    4.6314 C   0  0  0  0  0  0  0  0  0  0  0  0
    3.7346    6.6074    6.0471 C   0  0  2  0  0  0  0  0  0  0  0  0
    2.7613    5.8805    6.7735 O   0  0  0  0  0  0  0  0  0  0  0  0
    3.8851    7.9275    6.7218 C   0  0  2  0  0  0  0  0  0  0  0  0
    3.8217    7.7726    8.0858 O   0  0  0  0  0  0  0  0  0  0  0  0
    2.7678    8.8282    6.1745 C   0  0  1  0  0  0  0  0  0  0  0  0
    2.6703    9.9876    6.9075 O   0  0  0  0  0  0  0  0  0  0  0  0
    3.2054    9.1647    4.7600 C   0  0  1  0  0  0  0  0  0  0  0  0
    4.5000    9.8373    4.9037 N   0  0  0  0  0  0  0  0  0  0  0  0
    4.3819   11.1816    4.4291 C   0  0  0  0  0  3  0  0  0  0  0  0
    5.7275   11.8733    4.4001 C   0  0  1  0  0  0  0  0  0  0  0  0
    6.0550   12.2979    5.8168 C   0  0  0  0  0  0  0  0  0  0  0  0
    4.9358   12.6737    6.5404 O   0  0  0  0  0  0  0  0  0  0  0  0
    5.1656   13.7278    7.4126 C   0  0  0  0  0  0  0  0  0  0  0  0
    6.6606   10.9622    3.9141 O   0  0  0  0  0  0  0  0  0  0  0  0
    7.8904   11.3869    4.0443 O   0  0  0  0  0  0  0  0  0  0  0  0
    8.0297   12.7602    3.9382 C   0  0  1  0  0  0  0  0  0  0  0  0
    9.3468   13.0363    3.5527 O   0  0  0  0  0  0  0  0  0  0  0  0
    7.0447   13.2572    2.9005 C   0  0  2  0  0  0  0  0  0  0  0  0
    7.2846   14.5789    2.5331 O   0  0  0  0  0  0  0  0  0  0  0  0
    5.6462   13.0638    3.4725 C   0  0  1  0  0  0  0  0  0  0  0  0
    4.8046   12.7771    2.4128 O   0  0  0  0  0  0  0  0  0  0  0  0
    5.5386   12.5282    1.3672 O   0  0  0  0  0  0  0  0  0  0  0  0
  2  1  1  1
  2  3  1  0
  3  4  1  0
  4  5  1  1
  4  6  1  0
  6  7  1  1
  6  8  1  0
  8  9  1  1
  8 10  1  0
 10 11  1  1
 11 12  1  0
 13 12  1  1
 13 14  1  0
 14 15  1  0
 15 16  1  0
 13 17  1  0
 17 18  1  0
 18 19  1  0
 19 20  1  6
 19 21  1  0
 21 22  1  1
 21 23  1  0
 23 24  1  6
 24 25  1  0
 10  2  1  0
 23 13  1  0
M  RAD  1  12   2
M  END
>  <docking_score>  (2) 
-4.0179999999999998

$$$$

     RDKit          3D

 25 26  0  0  0  0  0  0  0  0999 V2000
   14.8157   -5.5018   -5.8355 C   0  0  0  0  0  0  0  0  0  0  0  0
   15.6518   -6.2849   -4.8849 C   0  0  1  0  0  0  0  0  0  0  0  0
   15.8826   -7.7062   -5.2341 C   0  0  0  0  0  0  0  0  0  0  0  0
   17.2472   -8.0701   -5.6951 C   0  0  2  0  0  0  0  0  0  0  0  0
   17.5974   -9.2788   -5.0471 O   0  0  0  0  0  0  0  0  0  0  0  0
   18.3244   -7.0861   -5.3924 C   0  0  2  0  0  0  0  0  0  0  0  0
   19.5511   -7.7051   -5.4120 O   0  0  0  0  0  0  0  0  0  0  0  0
   17.9888   -6.4779   -4.0224 C   0  0  1  0  0  0  0  0  0  0  0  0
   19.0440   -5.7373   -3.5437 O   0  0  0  0  0  0  0  0  0  0  0  0
   16.8110   -5.5578   -4.2899 C   0  0  1  0  0  0  0  0  0  0  0  0
   17.2940   -4.5850   -5.2745 N   0  0  0  0  0  0  0  0  0  0  0  0
   16.9047   -3.2718   -4.8617 C   0  0  0  0  0  3  0  0  0  0  0  0
   18.0569   -2.2973   -4.9742 C   0  0  1  0  0  0  0  0  0  0  0  0
   18.9561   -2.7782   -6.0943 C   0  0  0  0  0  0  0  0  0  0  0  0
   18.3583   -2.6945   -7.3406 O   0  0  0  0  0  0  0  0  0  0  0  0
   19.1934   -2.1860   -8.3248 C   0  0  0  0  0  0  0  0  0  0  0  0
   17.5234   -1.0427   -5.2538 O   0  0  0  0  0  0  0  0  0  0  0  0
   18.4408   -0.1690   -5.5777 O   0  0  0  0  0  0  0  0  0  0  0  0
   19.6567   -0.3635   -4.9452 C   0  0  1  0  0  0  0  0  0  0  0  0
   20.3382    0.8591   -4.9252 O   0  0  0  0  0  0  0  0  0  0  0  0
   19.3854   -0.8570   -3.5391 C   0  0  2  0  0  0  0  0  0  0  0  0
   20.5260   -0.8330   -2.7402 O   0  0  0  0  0  0  0  0  0  0  0  0
   18.7934   -2.2557   -3.6550 C   0  0  1  0  0  0  0  0  0  0  0  0
   17.8983   -2.4110   -2.6120 O   0  0  0  0  0  0  0  0  0  0  0  0
   18.4787   -3.1088   -1.6792 O   0  0  0  0  0  0  0  0  0  0  0  0
  2  1  1  6
  2  3  1  0
  3  4  1  0
  4  5  1  1
  4  6  1  0
  6  7  1  1
  6  8  1  0
  8  9  1  6
  8 10  1  0
 10 11  1  6
 11 12  1  0
 13 12  1  1
 13 14  1  0
 14 15  1  0
 15 16  1  0
 13 17  1  0
 17 18  1  0
 18 19  1  0
 19 20  1  1
 19 21  1  0
 21 22  1  1
 21 23  1  0
 23 24  1  1
 24 25  1  0
 10  2  1  0
 23 13  1  0
M  RAD  1  12   2
M  END
>  <docking_score>  (3) 
-3.8700000000000001

$$$$
