
     RDKit          3D

 31 34  0  0  0  0  0  0  0  0999 V2000
   19.7748   -5.9725   -6.1307 C   0  0  1  0  0  0  0  0  0  0  0  0
   20.6084   -5.2998   -5.1509 O   0  0  0  0  0  0  0  0  0  0  0  0
   19.9439   -4.7357   -4.0761 C   0  0  0  0  0  0  0  0  0  0  0  0
   19.8491   -5.6356   -3.0298 C   0  0  0  0  0  0  0  0  0  0  0  0
   18.4560   -6.1550   -2.6221 C   0  0  0  0  0  0  0  0  0  0  0  0
   17.3730   -5.7544   -3.3454 C   0  0  0  0  0  0  0  0  0  0  0  0
   16.4679   -4.6769   -3.2981 C   0  0  2  0  0  0  0  0  0  0  0  0
   15.4717   -4.4786   -4.3872 C   0  0  0  0  0  0  0  0  0  0  0  0
   15.9091   -3.0572   -4.4913 C   0  0  1  0  0  0  0  0  0  0  0  0
   14.9202   -2.0132   -4.2786 C   0  0  0  0  0  0  0  0  0  0  0  0
   14.0197   -1.6249   -5.1640 C   0  0  0  0  0  0  0  0  0  0  0  0
   13.0908   -0.6021   -4.8832 N   0  0  0  0  0  0  0  0  0  0  0  0
   13.3092    0.3125   -4.0263 C   0  0  0  0  0  0  0  0  0  0  0  0
   16.8994   -3.2923   -3.3632 C   0  0  2  0  0  0  0  0  0  0  0  0
   18.2202   -2.9116   -3.8067 C   0  0  0  0  0  0  0  0  0  0  0  0
   19.4504   -3.3700   -4.1621 C   0  0  0  0  0  0  0  0  0  0  0  0
   20.1309   -2.2455   -4.6302 N   0  0  0  0  0  0  0  0  0  0  0  0
   19.6363   -0.9448   -4.4095 N   0  0  0  0  0  0  0  0  0  0  0  0
   20.7058   -0.0058   -4.1533 C   0  0  1  0  0  0  0  0  0  0  0  0
   20.5224    1.2075   -4.7698 O   0  0  0  0  0  0  0  0  0  0  0  0
   20.9658    0.0795   -2.6839 C   0  0  0  0  0  0  0  0  0  0  0  0
   21.3784   -2.2514   -5.3721 C   0  0  0  0  0  0  0  0  0  0  0  0
   21.3824   -3.0775   -6.5912 C   0  0  0  0  0  0  0  0  0  0  0  0
   20.0808   -2.9498   -7.2767 C   0  0  0  0  0  0  0  0  0  0  0  0
   19.2501   -1.7468   -7.0659 C   0  0  0  0  0  0  0  0  0  0  0  0
   19.6587   -3.9031   -8.0749 C   0  0  0  0  0  0  0  0  0  0  0  0
   20.4487   -5.1045   -8.3095 C   0  0  0  0  0  0  0  0  0  0  0  0
   20.4826   -6.0369   -7.3990 C   0  0  0  0  0  0  0  0  0  0  0  0
   17.0491   -6.5752   -4.5253 C   0  0  0  0  0  0  0  0  0  0  0  0
   18.1408   -7.4281   -4.9703 C   0  0  0  0  0  0  0  0  0  0  0  0
   19.2343   -7.2037   -5.6110 C   0  0  0  0  0  0  0  0  0  0  0  0
  1  2  1  1
  2  3  1  0
  3  4  2  3
  4  5  1  0
  5  6  2  3
  6  7  1  0
  7  8  1  6
  9  8  1  1
  9 10  1  0
 10 11  2  3
 11 12  1  0
 12 13  2  0
  7 14  1  0
 14 15  1  6
 15 16  2  3
 16 17  1  0
 17 18  1  0
 18 19  1  0
 19 20  1  0
 19 21  1  1
 17 22  1  0
 22 23  1  0
 23 24  1  0
 24 25  1  0
 24 26  2  3
 26 27  1  0
 27 28  2  3
  6 29  1  0
 29 30  1  0
 30 31  2  3
 28  1  1  0
 31  1  1  0
 16  3  1  0
 14  9  1  0
M  END
>  <docking_score>  (1) 
-4.8760000000000003

$$$$

     RDKit          3D

 31 34  0  0  0  0  0  0  0  0999 V2000
   19.6218   -6.1902   -6.9774 C   0  0  1  0  0  0  0  0  0  0  0  0
   19.8558   -6.6220   -5.6112 O   0  0  0  0  0  0  0  0  0  0  0  0
   18.7587   -6.5856   -4.7687 C   0  0  0  0  0  0  0  0  0  0  0  0
   18.0858   -7.7941   -4.7859 C   0  0  0  0  0  0  0  0  0  0  0  0
   16.6597   -7.8407   -5.3698 C   0  0  0  0  0  0  0  0  0  0  0  0
   16.1352   -6.7014   -5.9022 C   0  0  0  0  0  0  0  0  0  0  0  0
   15.3955   -5.6060   -5.4171 C   0  0  2  0  0  0  0  0  0  0  0  0
   15.1251   -4.4305   -6.2907 C   0  0  0  0  0  0  0  0  0  0  0  0
   15.6257   -3.5418   -5.2035 C   0  0  1  0  0  0  0  0  0  0  0  0
   14.7267   -2.5331   -4.6674 C   0  0  0  0  0  0  0  0  0  0  0  0
   14.4860   -1.3568   -5.2187 C   0  0  0  0  0  0  0  0  0  0  0  0
   13.5982   -0.4286   -4.6373 N   0  0  0  0  0  0  0  0  0  0  0  0
   13.9888    0.5313   -3.8994 C   0  0  0  0  0  0  0  0  0  0  0  0
   15.8687   -4.7637   -4.3336 C   0  0  2  0  0  0  0  0  0  0  0  0
   17.2447   -4.7651   -3.8944 C   0  0  0  0  0  0  0  0  0  0  0  0
   18.4541   -5.3738   -4.0239 C   0  0  0  0  0  0  0  0  0  0  0  0
   19.3360   -4.5794   -3.2907 N   0  0  0  0  0  0  0  0  0  0  0  0
   18.8671   -3.5921   -2.4014 N   0  0  0  0  0  0  0  0  0  0  0  0
   19.9567   -2.9351   -1.7142 C   0  0  1  0  0  0  0  0  0  0  0  0
   19.9166   -1.5663   -1.8169 O   0  0  0  0  0  0  0  0  0  0  0  0
   20.0572   -3.4481   -0.3140 C   0  0  0  0  0  0  0  0  0  0  0  0
   20.7851   -4.6498   -3.3350 C   0  0  0  0  0  0  0  0  0  0  0  0
   21.3814   -4.5222   -4.6755 C   0  0  0  0  0  0  0  0  0  0  0  0
   20.6368   -3.5099   -5.4511 C   0  0  0  0  0  0  0  0  0  0  0  0
   19.8817   -2.4513   -4.7505 C   0  0  0  0  0  0  0  0  0  0  0  0
   20.6439   -3.5473   -6.7635 C   0  0  0  0  0  0  0  0  0  0  0  0
   21.3769   -4.5747   -7.4915 C   0  0  0  0  0  0  0  0  0  0  0  0
   20.8826   -5.7783   -7.5726 C   0  0  0  0  0  0  0  0  0  0  0  0
   16.4320   -6.4615   -7.3253 C   0  0  0  0  0  0  0  0  0  0  0  0
   17.5496   -7.2409   -7.8360 C   0  0  0  0  0  0  0  0  0  0  0  0
   18.8267   -7.1463   -7.7066 C   0  0  0  0  0  0  0  0  0  0  0  0
  1  2  1  1
  2  3  1  0
  3  4  2  3
  4  5  1  0
  5  6  2  3
  6  7  1  0
  7  8  1  6
  9  8  1  6
  9 10  1  0
 10 11  2  3
 11 12  1  0
 12 13  2  0
  7 14  1  0
 14 15  1  6
 15 16  2  3
 16 17  1  0
 17 18  1  0
 18 19  1  0
 19 20  1  0
 19 21  1  1
 17 22  1  0
 22 23  1  0
 23 24  1  0
 24 25  1  0
 24 26  2  3
 26 27  1  0
 27 28  2  3
  6 29  1  0
 29 30  1  0
 30 31  2  3
 28  1  1  0
 31  1  1  0
 16  3  1  0
 14  9  1  0
M  END
>  <docking_score>  (2) 
-4.2519999999999998

$$$$

     RDKit          3D

 31 34  0  0  0  0  0  0  0  0999 V2000
   20.3821   -2.9870   -5.9271 C   0  0  1  0  0  0  0  0  0  0  0  0
   19.1077   -2.3584   -5.6294 O   0  0  0  0  0  0  0  0  0  0  0  0
   18.2233   -3.1104   -4.8764 C   0  0  0  0  0  0  0  0  0  0  0  0
   18.3935   -2.8627   -3.5261 C   0  0  0  0  0  0  0  0  0  0  0  0
   18.9163   -3.9981   -2.6238 C   0  0  0  0  0  0  0  0  0  0  0  0
   19.2481   -5.1880   -3.1987 C   0  0  0  0  0  0  0  0  0  0  0  0
   18.5725   -6.3828   -3.5122 C   0  0  2  0  0  0  0  0  0  0  0  0
   19.2468   -7.4456   -4.3084 C   0  0  0  0  0  0  0  0  0  0  0  0
   18.0605   -7.4844   -5.2105 C   0  0  1  0  0  0  0  0  0  0  0  0
   17.3408   -8.7395   -5.3510 C   0  0  0  0  0  0  0  0  0  0  0  0
   17.7167   -9.7522   -6.1117 C   0  0  0  0  0  0  0  0  0  0  0  0
   16.9634  -10.9410   -6.1963 N   0  0  0  0  0  0  0  0  0  0  0  0
   16.8802  -11.6311   -7.2618 C   0  0  0  0  0  0  0  0  0  0  0  0
   17.3957   -6.4137   -4.3618 C   0  0  2  0  0  0  0  0  0  0  0  0
   17.0209   -5.3048   -5.2081 C   0  0  0  0  0  0  0  0  0  0  0  0
   17.2921   -4.0130   -5.5356 C   0  0  0  0  0  0  0  0  0  0  0  0
   16.4860   -3.7466   -6.6428 N   0  0  0  0  0  0  0  0  0  0  0  0
   15.4390   -4.6139   -7.0129 N   0  0  0  0  0  0  0  0  0  0  0  0
   14.2388   -4.3543   -6.2492 C   0  0  1  0  0  0  0  0  0  0  0  0
   14.0028   -3.0168   -6.0466 O   0  0  0  0  0  0  0  0  0  0  0  0
   13.0884   -5.1031   -6.8407 C   0  0  0  0  0  0  0  0  0  0  0  0
   16.6022   -2.6009   -7.5263 C   0  0  0  0  0  0  0  0  0  0  0  0
   17.9324   -2.3996   -8.1252 C   0  0  0  0  0  0  0  0  0  0  0  0
   18.5143   -3.7087   -8.4833 C   0  0  0  0  0  0  0  0  0  0  0  0
   17.6307   -4.8641   -8.7400 C   0  0  0  0  0  0  0  0  0  0  0  0
   19.8165   -3.8495   -8.5751 C   0  0  0  0  0  0  0  0  0  0  0  0
   20.7215   -2.7343   -8.3303 C   0  0  0  0  0  0  0  0  0  0  0  0
   20.9617   -2.3613   -7.1044 C   0  0  0  0  0  0  0  0  0  0  0  0
   20.6303   -5.2971   -3.6975 C   0  0  0  0  0  0  0  0  0  0  0  0
   21.2998   -4.0167   -3.8697 C   0  0  0  0  0  0  0  0  0  0  0  0
   21.2123   -3.0843   -4.7526 C   0  0  0  0  0  0  0  0  0  0  0  0
  1  2  1  1
  2  3  1  0
  3  4  2  3
  4  5  1  0
  5  6  2  3
  6  7  1  0
  7  8  1  6
  9  8  1  1
  9 10  1  0
 10 11  2  3
 11 12  1  0
 12 13  2  0
  7 14  1  0
 14 15  1  6
 15 16  2  3
 16 17  1  0
 17 18  1  0
 18 19  1  0
 19 20  1  0
 19 21  1  6
 17 22  1  0
 22 23  1  0
 23 24  1  0
 24 25  1  0
 24 26  2  3
 26 27  1  0
 27 28  2  3
  6 29  1  0
 29 30  1  0
 30 31  2  3
 28  1  1  0
 31  1  1  0
 16  3  1  0
 14  9  1  0
M  END
>  <docking_score>  (3) 
-3.6139999999999999

$$$$
