
     RDKit          3D

 25 25  0  0  0  0  0  0  0  0999 V2000
   20.6324   -4.4124   -2.0941 C   0  0  0  0  0  0  0  0  0  0  0  0
   19.9165   -3.4417   -1.2166 C   0  0  0  0  0  0  0  0  0  0  0  0
   20.7894   -2.3114   -0.7337 C   0  0  0  0  0  0  0  0  0  0  0  0
   18.5912   -2.9568   -1.7111 C   0  0  0  0  0  0  0  0  0  0  0  0
   18.6183   -1.6442   -2.4246 C   0  0  0  0  0  0  0  0  0  0  0  0
   19.3532   -1.7289   -3.7137 C   0  0  0  0  0  0  0  0  0  0  0  0
   18.5551   -1.5645   -4.9470 C   0  0  1  0  0  0  0  0  0  0  0  0
   18.7358   -0.3563   -5.7692 C   0  0  0  0  0  0  0  0  0  0  0  0
   18.5064   -2.7913   -5.8193 C   0  0  1  0  0  0  0  0  0  0  0  0
   19.3790   -3.8957   -5.3208 C   0  0  0  0  0  0  0  0  0  0  0  0
   19.6843   -4.8576   -6.4235 C   0  0  0  0  0  0  0  0  0  0  0  0
   19.3927   -6.2607   -5.9155 C   0  0  0  0  0  3  0  0  0  0  0  0
   19.6009   -7.2573   -7.0306 C   0  0  0  0  0  3  0  0  0  0  0  0
   20.6544   -8.2695   -6.6855 C   0  0  0  0  0  2  0  0  0  0  0  0
   18.3480   -7.9518   -7.4513 C   0  0  0  0  0  0  0  0  0  0  0  0
   17.2590   -7.9075   -6.4287 C   0  0  1  0  0  0  0  0  0  0  0  0
   17.4172   -8.8884   -5.3826 N   0  0  0  0  0  1  0  0  0  0  0  0
   16.9501   -6.5340   -5.9209 C   0  0  0  0  0  0  0  0  0  0  0  0
   15.4837   -6.2660   -6.1411 C   0  0  0  0  0  0  0  0  0  0  0  0
   15.2125   -4.8641   -6.2439 N   0  0  0  0  0  3  0  0  0  0  0  0
   14.2325   -4.5538   -7.1076 O   0  0  0  0  0  0  0  0  0  0  0  0
   15.0864   -4.1986   -4.9692 C   0  0  0  0  0  3  0  0  0  0  0  0
   16.3730   -3.4590   -4.6723 C   0  0  0  0  0  0  0  0  0  0  0  0
   17.0798   -3.2147   -5.9876 C   0  0  1  0  0  0  0  0  0  0  0  0
   16.2964   -2.1593   -6.7370 C   0  0  0  0  0  2  0  0  0  0  0  0
  1  2  1  0
  2  3  1  0
  2  4  1  0
  4  5  1  0
  5  6  1  0
  6  7  1  0
  7  8  1  6
  7  9  1  0
  9 10  1  1
 10 11  1  0
 11 12  1  0
 12 13  1  0
 13 14  1  0
 13 15  1  0
 15 16  1  0
 16 17  1  1
 16 18  1  0
 18 19  1  0
 19 20  1  0
 20 21  1  0
 20 22  1  0
 22 23  1  0
 23 24  1  0
 24 25  1  1
 24  9  1  0
M  CHG  2  17   1  20   1
M  RAD  7  12   2  13   2  14   3  17   2  20   2  22   2  25   3
M  END
>  <docking_score>  (1) 
-4.375

$$$$

     RDKit          3D

 25 25  0  0  0  0  0  0  0  0999 V2000
    5.1989   10.9521   13.5024 C   0  0  0  0  0  0  0  0  0  0  0  0
    6.0474   10.8535   12.2796 C   0  0  0  0  0  0  0  0  0  0  0  0
    6.3868    9.4354   11.8968 C   0  0  0  0  0  0  0  0  0  0  0  0
    5.6065   11.6634   11.1025 C   0  0  0  0  0  0  0  0  0  0  0  0
    4.3924   11.1535   10.3965 C   0  0  0  0  0  0  0  0  0  0  0  0
    4.7442   10.3753    9.1800 C   0  0  0  0  0  0  0  0  0  0  0  0
    3.6236    9.9478    8.3160 C   0  0  1  0  0  0  0  0  0  0  0  0
    2.2575    9.9203    8.8648 C   0  0  0  0  0  0  0  0  0  0  0  0
    3.6270   10.5730    6.9457 C   0  0  1  0  0  0  0  0  0  0  0  0
    4.7445   11.5441    6.7510 C   0  0  0  0  0  0  0  0  0  0  0  0
    4.4363   12.4745    5.6224 C   0  0  0  0  0  0  0  0  0  0  0  0
    5.6395   12.4983    4.6930 C   0  0  0  0  0  3  0  0  0  0  0  0
    5.3335   13.3570    3.4893 C   0  0  0  0  0  3  0  0  0  0  0  0
    6.2881   14.5093    3.3681 C   0  0  0  0  0  2  0  0  0  0  0  0
    5.2938   12.5937    2.2068 C   0  0  0  0  0  0  0  0  0  0  0  0
    6.0062   11.2811    2.2616 C   0  0  1  0  0  0  0  0  0  0  0  0
    7.4363   11.4002    2.1128 N   0  0  0  0  0  1  0  0  0  0  0  0
    5.5931   10.4064    3.4036 C   0  0  0  0  0  0  0  0  0  0  0  0
    5.1384    9.0823    2.8461 C   0  0  0  0  0  0  0  0  0  0  0  0
    4.2177    8.4271    3.7250 N   0  0  0  0  0  3  0  0  0  0  0  0
    3.2576    7.7293    3.0975 O   0  0  0  0  0  0  0  0  0  0  0  0
    4.8521    7.6960    4.7958 C   0  0  0  0  0  3  0  0  0  0  0  0
    4.7682    8.5147    6.0660 C   0  0  0  0  0  0  0  0  0  0  0  0
    3.6197    9.4878    5.9137 C   0  0  1  0  0  0  0  0  0  0  0  0
    2.3350    8.6919    5.9875 C   0  0  0  0  0  2  0  0  0  0  0  0
  1  2  1  0
  2  3  1  0
  2  4  1  0
  4  5  1  0
  5  6  1  0
  6  7  1  0
  7  8  1  1
  7  9  1  0
  9 10  1  6
 10 11  1  0
 11 12  1  0
 12 13  1  0
 13 14  1  0
 13 15  1  0
 15 16  1  0
 16 17  1  1
 16 18  1  0
 18 19  1  0
 19 20  1  0
 20 21  1  0
 20 22  1  0
 22 23  1  0
 23 24  1  0
 24 25  1  1
 24  9  1  0
M  CHG  2  17   1  20   1
M  RAD  7  12   2  13   2  14   3  17   2  20   2  22   2  25   3
M  END
>  <docking_score>  (2) 
-4.0990000000000002

$$$$

     RDKit          3D

 25 25  0  0  0  0  0  0  0  0999 V2000
   15.7477   -7.6239   -5.3076 C   0  0  0  0  0  0  0  0  0  0  0  0
   14.9621   -6.4094   -4.9431 C   0  0  0  0  0  0  0  0  0  0  0  0
   15.4964   -5.6899   -3.7309 C   0  0  0  0  0  0  0  0  0  0  0  0
   14.6440   -5.4684   -6.0608 C   0  0  0  0  0  0  0  0  0  0  0  0
   13.6981   -4.3646   -5.7151 C   0  0  0  0  0  0  0  0  0  0  0  0
   14.3858   -3.2392   -5.0297 C   0  0  0  0  0  0  0  0  0  0  0  0
   15.1459   -2.3035   -5.8851 C   0  0  1  0  0  0  0  0  0  0  0  0
   14.5049   -1.0593   -6.3427 C   0  0  0  0  0  0  0  0  0  0  0  0
   16.5468   -2.0275   -5.4056 C   0  0  1  0  0  0  0  0  0  0  0  0
   16.7817   -2.4788   -4.0017 C   0  0  0  0  0  0  0  0  0  0  0  0
   17.9599   -1.7695   -3.4160 C   0  0  0  0  0  0  0  0  0  0  0  0
   18.8784   -2.8144   -2.8026 C   0  0  0  0  0  3  0  0  0  0  0  0
   20.1279   -2.1470   -2.2797 C   0  0  0  0  0  3  0  0  0  0  0  0
   20.3002   -2.3623   -0.8041 C   0  0  0  0  0  2  0  0  0  0  0  0
   21.3693   -2.5568   -3.0010 C   0  0  0  0  0  0  0  0  0  0  0  0
   21.2399   -3.8476   -3.7429 C   0  0  1  0  0  0  0  0  0  0  0  0
   21.3818   -5.0088   -2.8985 N   0  0  0  0  0  1  0  0  0  0  0  0
   20.0577   -3.9130   -4.6583 C   0  0  0  0  0  0  0  0  0  0  0  0
   20.5496   -4.2369   -6.0453 C   0  0  0  0  0  0  0  0  0  0  0  0
   19.6461   -3.7643   -7.0501 N   0  0  0  0  0  3  0  0  0  0  0  0
   20.2451   -3.3328   -8.1716 O   0  0  0  0  0  0  0  0  0  0  0  0
   18.5330   -4.6494   -7.2977 C   0  0  0  0  0  3  0  0  0  0  0  0
   17.3080   -4.1059   -6.5946 C   0  0  0  0  0  0  0  0  0  0  0  0
   17.5210   -2.6243   -6.3739 C   0  0  1  0  0  0  0  0  0  0  0  0
   17.4174   -1.9432   -7.7209 C   0  0  0  0  0  2  0  0  0  0  0  0
  1  2  1  0
  2  3  1  0
  2  4  1  0
  4  5  1  0
  5  6  1  0
  6  7  1  0
  7  8  1  1
  7  9  1  0
  9 10  1  1
 10 11  1  0
 11 12  1  0
 12 13  1  0
 13 14  1  0
 13 15  1  0
 15 16  1  0
 16 17  1  1
 16 18  1  0
 18 19  1  0
 19 20  1  0
 20 21  1  0
 20 22  1  0
 22 23  1  0
 23 24  1  0
 24 25  1  6
 24  9  1  0
M  CHG  2  17   1  20   1
M  RAD  7  12   2  13   2  14   3  17   2  20   2  22   2  25   3
M  END
>  <docking_score>  (3) 
-3.9169999999999998

$$$$
