
     RDKit          3D

 88 93  0  0  0  0  0  0  0  0999 V2000
    6.6700    7.0908    6.1776 C   0  0  0  0  0  0  0  0  0  0  0  0
    5.3109    6.9372    6.5080 O   0  0  0  0  0  0  0  0  0  0  0  0
    4.4245    7.9921    6.5717 C   0  0  0  0  0  0  0  0  0  0  0  0
    3.6576    8.1672    7.6994 C   0  0  0  0  0  0  0  0  0  0  0  0
    2.7721    9.2043    7.7894 C   0  0  0  0  0  0  0  0  0  0  0  0
    2.6565   10.0741    6.7345 C   0  0  0  0  0  0  0  0  0  0  0  0
    3.4017    9.9379    5.5892 C   0  0  0  0  0  0  0  0  0  0  0  0
    4.3025    8.8659    5.5223 C   0  0  0  0  0  0  0  0  0  0  0  0
    5.1380    8.6579    4.3219 C   0  0  0  0  0  0  0  0  0  0  0  0
    6.4498    9.3867    4.5335 C   0  0  0  0  0  0  0  0  0  0  0  0
    6.2719   10.8196    4.1450 C   0  0  0  0  0  0  0  0  0  0  0  0
    5.3259   11.0254    3.0187 C   0  0  1  0  0  0  0  0  0  0  0  0
    5.2777   12.4182    2.5357 C   0  0  0  0  0  0  0  0  0  0  0  0
    4.9682   13.4037    3.6380 C   0  0  0  0  0  0  0  0  0  0  0  0
    5.2303    9.9410    2.0261 C   0  0  0  0  0  0  0  0  0  0  0  0
    4.0327    9.0603    2.1025 C   0  0  0  0  0  0  0  0  0  0  0  0
    3.2987    8.8688    0.8431 C   0  0  0  0  0  0  0  0  0  0  0  0
    2.4013    9.8721    0.4015 N   0  0  0  0  0  0  0  0  0  0  0  0
    2.9377   11.0100   -0.2301 N   0  0  0  0  0  0  0  0  0  0  0  0
    3.4331    7.8082    0.0671 C   0  0  0  0  0  0  0  0  0  0  0  0
    4.3101    6.6621    0.3086 C   0  0  0  0  0  0  0  0  0  0  0  0
    5.6360    7.0584    0.9223 C   0  0  1  0  0  0  0  0  0  0  0  0
    6.2883    5.8799    1.6167 C   0  0  0  0  0  0  0  0  0  0  0  0
    6.5615    7.6837   -0.0748 C   0  0  0  0  0  0  0  0  0  0  0  0
    5.8169    7.8706   -1.3745 C   0  0  0  0  0  0  0  0  0  0  0  0
    6.6189    8.5333   -2.4315 C   0  0  0  0  0  0  0  0  0  0  0  0
    7.6643    7.9089   -2.9232 C   0  0  0  0  0  0  0  0  0  0  0  0
    8.4638    8.5733   -3.9790 C   0  0  0  0  0  0  0  0  0  0  0  0
    7.6268    9.3672   -4.9540 C   0  0  0  0  0  0  0  0  0  0  0  0
    7.4122    8.6994   -6.2411 C   0  0  0  0  0  0  0  0  0  0  0  0
    8.3801    8.5686   -7.1640 C   0  0  0  0  0  0  0  0  0  0  0  0
    8.1411    7.9033   -8.4282 C   0  0  0  0  0  0  0  0  0  0  0  0
    7.9324    6.6080   -8.5805 C   0  0  0  0  0  0  0  0  0  0  0  0
    7.9102    5.6751   -7.5385 N   0  0  0  0  0  0  0  0  0  0  0  0
    6.8671    5.3822   -6.8400 C   0  0  0  0  0  0  0  0  0  0  0  0
    6.8586    4.4427   -5.7952 N   0  0  0  0  0  0  0  0  0  0  0  0
    8.0501    4.0564   -5.0803 C   0  0  0  0  0  0  0  0  0  0  0  0
    8.2913    4.5324   -3.8510 C   0  0  0  0  0  0  0  0  0  0  0  0
    7.3734    5.4554   -3.1761 C   0  0  0  0  0  0  0  0  0  0  0  0
    8.0240    6.5696   -2.4295 C   0  0  1  0  0  0  0  0  0  0  0  0
    9.7640    6.3316   -2.0892 S   0  0  0  0  0  0  0  0  0  0  0  0
   10.2730    7.4972   -0.7968 C   0  0  0  0  0  0  0  0  0  0  0  0
   10.3814    6.7443    0.4766 C   0  0  0  0  0  0  0  0  0  0  0  0
    9.9203    5.5074    0.5363 C   0  0  0  0  0  3  0  0  0  0  0  0
    9.2996    4.8207   -0.5885 C   0  0  0  0  0  0  0  0  0  0  0  0
    8.2773    4.0116   -0.3358 C   0  0  0  0  0  0  0  0  0  0  0  0
    7.5852    3.2792   -1.3774 C   0  0  0  0  0  0  0  0  0  0  0  0
    7.9885    2.0712   -1.6958 C   0  0  0  0  0  0  0  0  0  0  0  0
    9.1369    1.4683   -0.9977 C   0  0  0  0  0  0  0  0  0  0  0  0
    9.9785    0.6119   -1.8938 C   0  0  0  0  0  0  0  0  0  0  0  0
    9.4776    0.4587   -3.2610 C   0  0  0  0  0  0  0  0  0  0  0  0
   10.0498   -0.2280   -4.2025 C   0  0  0  0  0  0  0  0  0  0  0  0
    9.4897   -0.3438   -5.5712 C   0  0  0  0  0  0  0  0  0  0  0  0
    9.5284   -1.5837   -6.1063 C   0  0  0  0  0  0  0  0  0  0  0  0
   10.1006   -2.7007   -5.3278 C   0  0  0  0  0  0  0  0  0  0  0  0
   11.2779   -2.3100   -4.5639 C   0  0  2  0  0  0  0  0  0  0  0  0
   11.3111   -0.9595   -3.9894 C   0  0  2  0  0  0  0  0  0  0  0  0
   11.7663   -0.9937   -2.5658 C   0  0  0  0  0  0  0  0  0  0  0  0
   12.8116    0.0614   -2.2599 C   0  0  0  0  0  0  0  0  0  0  0  0
   14.0549   -0.0945   -3.0996 C   0  0  0  0  0  0  0  0  0  0  0  0
   14.9755   -1.1150   -2.5273 C   0  0  0  0  0  0  0  0  0  0  0  0
   16.2115   -1.2146   -2.9467 C   0  0  0  0  0  0  0  0  0  0  0  0
   16.8252   -0.4004   -3.9615 C   0  0  0  0  0  0  0  0  0  0  0  0
   16.3746   -0.2222   -5.1823 C   0  0  0  0  0  0  0  0  0  0  0  0
   15.1318   -0.8612   -5.6867 C   0  0  0  0  0  0  0  0  0  0  0  0
   15.4618   -2.2928   -6.0420 C   0  0  1  0  0  0  0  0  0  0  0  0
   14.3116   -2.9346   -6.7872 C   0  0  0  0  0  0  0  0  0  0  0  0
   13.0213   -2.4858   -6.2403 C   0  0  0  0  0  0  0  0  0  0  0  0
   12.5806   -2.7978   -5.0405 C   0  0  0  0  0  0  0  0  0  0  0  0
   13.3294   -3.6152   -4.1463 N   0  0  0  0  0  0  0  0  0  0  0  0
   14.1865   -4.7022   -4.5436 C   0  0  0  0  0  3  0  0  0  0  0  0
   15.3361   -4.6946   -3.7233 O   0  0  0  0  0  0  0  0  0  0  0  0
   16.4811   -4.4962   -4.5274 C   0  0  0  0  0  0  0  0  0  0  0  0
   16.2670   -5.2393   -5.7792 C   0  0  0  0  0  0  0  0  0  0  0  0
   16.6160   -4.8166   -6.9855 C   0  0  0  0  0  0  0  0  0  0  0  0
   17.2656   -3.5512   -7.2756 C   0  0  0  0  0  0  0  0  0  0  0  0
   16.7209   -2.3512   -6.8263 C   0  0  0  0  0  0  0  0  0  0  0  0
   17.3597   -1.1691   -7.1180 C   0  0  0  0  0  0  0  0  0  0  0  0
   18.5161   -1.1009   -7.8349 C   0  0  0  0  0  0  0  0  0  0  0  0
   19.0614   -2.2890   -8.2840 C   0  0  0  0  0  0  0  0  0  0  0  0
   18.4345   -3.5048   -8.0025 C   0  0  0  0  0  0  0  0  0  0  0  0
   19.2540   -4.9583   -8.6585 S   0  0  0  0  0  0  0  0  0  0  0  0
   18.6425   -6.4073   -7.7770 C   0  0  0  0  0  3  0  0  0  0  0  0
   17.1924   -6.6120   -7.9310 C   0  0  0  0  0  0  0  0  0  0  0  0
   16.3629   -5.7512   -8.5019 C   0  0  0  0  0  0  0  0  0  0  0  0
   14.6222   -6.1736   -8.6005 S   0  0  0  0  0  0  0  0  0  0  0  0
   13.5643   -5.6919   -7.4270 C   0  0  0  0  0  0  0  0  0  0  0  0
   12.2020   -6.0312   -7.5178 N   0  0  0  0  0  0  0  0  0  0  0  0
  1  2  1  0
  2  3  1  0
  3  4  2  0
  4  5  1  0
  5  6  2  0
  6  7  1  0
  7  8  2  0
  8  9  1  0
  9 10  1  0
 10 11  1  0
 12 11  1  6
 12 13  1  0
 13 14  1  0
 12 15  1  0
 15 16  1  0
 16 17  1  0
 17 18  1  0
 18 19  1  0
 17 20  2  3
 20 21  1  0
 21 22  1  0
 22 23  1  6
 22 24  1  0
 24 25  1  0
 25 26  1  0
 26 27  2  3
 27 28  1  0
 28 29  1  0
 29 30  1  0
 30 31  2  3
 31 32  1  0
 32 33  2  3
 33 34  1  0
 34 35  2  3
 35 36  1  0
 36 37  1  0
 37 38  2  3
 38 39  1  0
 39 40  1  0
 40 41  1  6
 41 42  1  0
 42 43  1  0
 43 44  2  3
 44 45  1  0
 45 46  2  3
 46 47  1  0
 47 48  2  3
 48 49  1  0
 49 50  1  0
 50 51  1  0
 51 52  2  3
 52 53  1  0
 53 54  2  0
 54 55  1  0
 56 55  1  6
 56 57  1  0
 57 58  1  1
 58 59  1  0
 59 60  1  0
 60 61  1  0
 61 62  2  3
 62 63  1  0
 63 64  2  3
 64 65  1  0
 66 65  1  6
 66 67  1  0
 67 68  1  0
 68 69  2  3
 69 70  1  0
 70 71  1  0
 71 72  1  0
 72 73  1  0
 73 74  1  0
 74 75  2  3
 75 76  1  0
 76 77  2  0
 77 78  1  0
 78 79  2  0
 79 80  1  0
 80 81  2  0
 81 82  1  0
 82 83  1  0
 83 84  1  0
 84 85  2  3
 85 86  1  0
 86 87  2  3
 87 88  1  0
  8  3  1  0
 40 27  1  0
 57 52  1  0
 69 56  1  0
 77 66  1  0
 81 76  1  0
M  RAD  3  44   2  71   2  83   2
M  END
>  <docking_score>  (1) 
129.92099999999999

$$$$

     RDKit          3D

 88 93  0  0  0  0  0  0  0  0999 V2000
   18.6518   -4.0125   -4.1746 C   0  0  0  0  0  0  0  0  0  0  0  0
   18.6561   -4.4093   -2.8245 O   0  0  0  0  0  0  0  0  0  0  0  0
   17.5295   -4.3949   -2.0289 C   0  0  0  0  0  0  0  0  0  0  0  0
   16.4223   -5.1175   -2.4067 C   0  0  0  0  0  0  0  0  0  0  0  0
   15.2932   -5.1215   -1.6368 C   0  0  0  0  0  0  0  0  0  0  0  0
   15.2771   -4.3913   -0.4753 C   0  0  0  0  0  0  0  0  0  0  0  0
   16.3590   -3.6552   -0.0591 C   0  0  0  0  0  0  0  0  0  0  0  0
   17.5046   -3.6679   -0.8668 C   0  0  0  0  0  0  0  0  0  0  0  0
   18.7066   -2.9006   -0.4812 C   0  0  0  0  0  0  0  0  0  0  0  0
   19.5468   -2.6918   -1.7251 C   0  0  0  0  0  0  0  0  0  0  0  0
   20.6198   -1.6964   -1.4190 C   0  0  0  0  0  0  0  0  0  0  0  0
   20.1628   -0.2841   -1.4668 C   0  0  1  0  0  0  0  0  0  0  0  0
   21.1496    0.6355   -2.0636 C   0  0  0  0  0  0  0  0  0  0  0  0
   20.5232    1.9203   -2.5522 C   0  0  0  0  0  0  0  0  0  0  0  0
   18.7363   -0.0579   -1.7573 C   0  0  0  0  0  0  0  0  0  0  0  0
   17.7522   -0.6882   -0.8354 C   0  0  0  0  0  0  0  0  0  0  0  0
   17.3012    0.1479    0.2867 C   0  0  0  0  0  0  0  0  0  0  0  0
   18.2624    0.7736    1.1184 N   0  0  0  0  0  0  0  0  0  0  0  0
   18.2070    0.5207    2.5020 N   0  0  0  0  0  0  0  0  0  0  0  0
   16.0313    0.3757    0.5709 C   0  0  0  0  0  0  0  0  0  0  0  0
   14.8730   -0.1455   -0.1555 C   0  0  0  0  0  0  0  0  0  0  0  0
   15.0648   -0.1232   -1.6570 C   0  0  1  0  0  0  0  0  0  0  0  0
   15.0150    1.2940   -2.1913 C   0  0  0  0  0  0  0  0  0  0  0  0
   16.3191   -0.8218   -2.0819 C   0  0  0  0  0  0  0  0  0  0  0  0
   16.0975   -1.4246   -3.4480 C   0  0  0  0  0  0  0  0  0  0  0  0
   15.0067   -2.4289   -3.4871 C   0  0  0  0  0  0  0  0  0  0  0  0
   13.9284   -2.1706   -4.1908 C   0  0  0  0  0  0  0  0  0  0  0  0
   12.8402   -3.1755   -4.2281 C   0  0  0  0  0  0  0  0  0  0  0  0
   13.3410   -4.6003   -4.2516 C   0  0  0  0  0  0  0  0  0  0  0  0
   13.2866   -5.2323   -5.5730 C   0  0  0  0  0  0  0  0  0  0  0  0
   12.1352   -5.6175   -6.1491 C   0  0  0  0  0  0  0  0  0  0  0  0
   12.1097   -6.2397   -7.4569 C   0  0  0  0  0  0  0  0  0  0  0  0
   12.3823   -5.6302   -8.5965 C   0  0  0  0  0  0  0  0  0  0  0  0
   12.7392   -4.2829   -8.7157 N   0  0  0  0  0  0  0  0  0  0  0  0
   13.9432   -3.8330   -8.6177 C   0  0  0  0  0  0  0  0  0  0  0  0
   14.2882   -2.4763   -8.7393 N   0  0  0  0  0  0  0  0  0  0  0  0
   13.3467   -1.4065   -8.5176 C   0  0  0  0  0  0  0  0  0  0  0  0
   13.3774   -0.6968   -7.3812 C   0  0  0  0  0  0  0  0  0  0  0  0
   14.3527   -0.9632   -6.3193 C   0  0  0  0  0  0  0  0  0  0  0  0
   13.8154   -0.9027   -4.9301 C   0  0  1  0  0  0  0  0  0  0  0  0
   12.2395   -0.0716   -4.7689 S   0  0  0  0  0  0  0  0  0  0  0  0
   11.8375    0.0853   -3.0077 C   0  0  0  0  0  0  0  0  0  0  0  0
   12.3058   -1.1447   -2.3238 C   0  0  0  0  0  0  0  0  0  0  0  0
   11.4168   -1.9710   -1.8014 C   0  0  0  0  0  3  0  0  0  0  0  0
    9.9781   -1.7491   -1.8535 C   0  0  0  0  0  0  0  0  0  0  0  0
    9.5402   -0.4960   -1.8130 C   0  0  0  0  0  0  0  0  0  0  0  0
    8.1314   -0.1593   -1.8589 C   0  0  0  0  0  0  0  0  0  0  0  0
    7.7608    1.0925   -1.7215 C   0  0  0  0  0  0  0  0  0  0  0  0
    8.7724    2.1443   -1.5215 C   0  0  0  0  0  0  0  0  0  0  0  0
    9.3468    2.6517   -2.8089 C   0  0  0  0  0  0  0  0  0  0  0  0
   10.0678    3.9223   -2.7124 C   0  0  0  0  0  0  0  0  0  0  0  0
    9.8607    4.8424   -1.8202 C   0  0  0  0  0  0  0  0  0  0  0  0
   10.6274    6.1116   -1.7768 C   0  0  0  0  0  0  0  0  0  0  0  0
   11.0224    6.5040   -0.5458 C   0  0  0  0  0  0  0  0  0  0  0  0
   10.6821    5.6791    0.6310 C   0  0  0  0  0  0  0  0  0  0  0  0
    9.3425    5.1120    0.5531 C   0  0  2  0  0  0  0  0  0  0  0  0
    8.8421    4.7019   -0.7647 C   0  0  2  0  0  0  0  0  0  0  0  0
    8.2092    3.3491   -0.7004 C   0  0  0  0  0  0  0  0  0  0  0  0
    6.8739    3.2928   -1.4169 C   0  0  0  0  0  0  0  0  0  0  0  0
    5.8652    4.2535   -0.8383 C   0  0  0  0  0  0  0  0  0  0  0  0
    5.1981    3.6849    0.3651 C   0  0  0  0  0  0  0  0  0  0  0  0
    4.1178    4.2365    0.8574 C   0  0  0  0  0  0  0  0  0  0  0  0
    3.4560    5.4035    0.3381 C   0  0  0  0  0  0  0  0  0  0  0  0
    4.0135    6.5732    0.1234 C   0  0  0  0  0  0  0  0  0  0  0  0
    5.4471    6.8484    0.3994 C   0  0  0  0  0  0  0  0  0  0  0  0
    5.5939    7.0770    1.8863 C   0  0  1  0  0  0  0  0  0  0  0  0
    6.9764    7.6005    2.2101 C   0  0  0  0  0  0  0  0  0  0  0  0
    7.9900    6.9561    1.3599 C   0  0  0  0  0  0  0  0  0  0  0  0
    8.3178    5.6843    1.4389 C   0  0  0  0  0  0  0  0  0  0  0  0
    7.7079    4.8005    2.3746 N   0  0  0  0  0  0  0  0  0  0  0  0
    7.2638    5.1731    3.6929 C   0  0  0  0  0  3  0  0  0  0  0  0
    6.0510    4.5037    3.9674 O   0  0  0  0  0  0  0  0  0  0  0  0
    5.0294    5.4575    4.1769 C   0  0  0  0  0  0  0  0  0  0  0  0
    5.6292    6.5823    4.9118 C   0  0  0  0  0  0  0  0  0  0  0  0
    5.3577    7.8618    4.7006 C   0  0  0  0  0  0  0  0  0  0  0  0
    4.4259    8.3693    3.7097 C   0  0  0  0  0  0  0  0  0  0  0  0
    4.5343    7.9959    2.3728 C   0  0  0  0  0  0  0  0  0  0  0  0
    3.6368    8.4943    1.4582 C   0  0  0  0  0  0  0  0  0  0  0  0
    2.6285    9.3486    1.7886 C   0  0  0  0  0  0  0  0  0  0  0  0
    2.5162    9.7232    3.1144 C   0  0  0  0  0  0  0  0  0  0  0  0
    3.4136    9.2326    4.0654 C   0  0  0  0  0  0  0  0  0  0  0  0
    3.1476    9.8144    5.7404 S   0  0  0  0  0  0  0  0  0  0  0  0
    3.8628   11.4622    5.8947 C   0  0  0  0  0  3  0  0  0  0  0  0
    3.8028   11.9955    7.2660 C   0  0  0  0  0  0  0  0  0  0  0  0
    3.1834   11.4093    8.2797 C   0  0  0  0  0  0  0  0  0  0  0  0
    3.2178   12.2098    9.8848 S   0  0  0  0  0  0  0  0  0  0  0  0
    2.6676   13.7557   10.0740 C   0  0  0  0  0  0  0  0  0  0  0  0
    2.7014   14.3704   11.3390 N   0  0  0  0  0  0  0  0  0  0  0  0
  1  2  1  0
  2  3  1  0
  3  4  2  0
  4  5  1  0
  5  6  2  0
  6  7  1  0
  7  8  2  0
  8  9  1  0
  9 10  1  0
 10 11  1  0
 12 11  1  6
 12 13  1  0
 13 14  1  0
 12 15  1  0
 15 16  1  0
 16 17  1  0
 17 18  1  0
 18 19  1  0
 17 20  2  3
 20 21  1  0
 21 22  1  0
 22 23  1  1
 22 24  1  0
 24 25  1  0
 25 26  1  0
 26 27  2  3
 27 28  1  0
 28 29  1  0
 29 30  1  0
 30 31  2  3
 31 32  1  0
 32 33  2  3
 33 34  1  0
 34 35  2  3
 35 36  1  0
 36 37  1  0
 37 38  2  3
 38 39  1  0
 39 40  1  0
 40 41  1  6
 41 42  1  0
 42 43  1  0
 43 44  2  3
 44 45  1  0
 45 46  2  3
 46 47  1  0
 47 48  2  3
 48 49  1  0
 49 50  1  0
 50 51  1  0
 51 52  2  3
 52 53  1  0
 53 54  2  0
 54 55  1  0
 56 55  1  6
 56 57  1  0
 57 58  1  1
 58 59  1  0
 59 60  1  0
 60 61  1  0
 61 62  2  3
 62 63  1  0
 63 64  2  3
 64 65  1  0
 66 65  1  6
 66 67  1  0
 67 68  1  0
 68 69  2  3
 69 70  1  0
 70 71  1  0
 71 72  1  0
 72 73  1  0
 73 74  1  0
 74 75  2  3
 75 76  1  0
 76 77  2  0
 77 78  1  0
 78 79  2  0
 79 80  1  0
 80 81  2  0
 81 82  1  0
 82 83  1  0
 83 84  1  0
 84 85  2  3
 85 86  1  0
 86 87  2  3
 87 88  1  0
  8  3  1  0
 40 27  1  0
 57 52  1  0
 69 56  1  0
 77 66  1  0
 81 76  1  0
M  RAD  3  44   2  71   2  83   2
M  END
>  <docking_score>  (2) 
132.63900000000001

$$$$
