
     RDKit          3D

 66 68  0  0  0  0  0  0  0  0999 V2000
   17.4039    4.6697   -3.4701 C   0  0  0  0  0  0  0  0  0  0  0  0
   16.2997    3.6764   -3.1509 C   0  0  1  0  0  0  0  0  0  0  0  0
   14.9866    4.4132   -3.3587 C   0  0  0  0  0  0  0  0  0  0  0  0
   16.4041    2.5055   -4.0777 C   0  0  0  0  0  0  0  0  0  0  0  0
   15.4989    2.6622   -5.2755 C   0  0  0  0  0  0  0  0  0  0  0  0
   15.7450    1.5796   -6.2841 C   0  0  0  0  0  0  0  0  0  0  0  0
   14.5156    0.6937   -6.3460 C   0  0  1  0  0  0  0  0  0  0  0  0
   14.5760   -0.2756   -7.4974 C   0  0  0  0  0  0  0  0  0  0  0  0
   14.3170   -0.0246   -5.0213 C   0  0  0  0  0  3  0  0  0  0  0  0
   14.2830   -1.5217   -5.2130 C   0  0  0  0  0  0  0  0  0  0  0  0
   15.5981   -1.9830   -5.8334 C   0  0  0  0  0  0  0  0  0  0  0  0
   16.6288   -1.9695   -4.7401 C   0  0  0  0  0  3  0  0  0  0  0  0
   16.0798   -2.5351   -3.4409 C   0  0  0  0  0  3  0  0  0  0  0  0
   17.1865   -2.6731   -2.4436 C   0  0  0  0  0  2  0  0  0  0  0  0
   18.3104   -3.5488   -2.8915 C   0  0  0  0  0  0  0  0  0  0  0  0
   17.8683   -4.9483   -3.2632 C   0  0  1  0  0  0  0  0  0  0  0  0
   16.3737   -4.9437   -3.3717 C   0  0  0  0  0  0  0  0  0  0  0  0
   15.8050   -6.2612   -3.8018 C   0  0  1  0  0  0  0  0  0  0  0  0
   14.8212   -6.0026   -4.9236 C   0  0  0  0  0  0  0  0  0  0  0  0
   16.8667   -7.1990   -4.3250 C   0  0  2  0  0  0  0  0  0  0  0  0
   17.7511   -7.6697   -3.1756 C   0  0  0  0  0  0  0  0  0  0  0  0
   18.9190   -8.3995   -3.8051 C   0  0  1  0  0  0  0  0  0  0  0  0
   19.9508   -8.5692   -2.8921 O   0  0  0  0  0  0  0  0  0  0  0  0
   18.4474   -9.7037   -4.3877 C   0  0  0  0  0  0  0  0  0  0  0  0
   17.1293   -9.4754   -5.0933 C   0  0  0  0  0  0  0  0  0  0  0  0
   17.3204   -9.6661   -6.5757 C   0  0  2  0  0  0  0  0  0  0  0  0
   17.9238  -11.0039   -6.8588 C   0  0  0  0  0  0  0  0  0  0  0  0
   17.9461   -8.6127   -7.1966 O   0  0  0  0  0  0  0  0  0  0  0  0
   18.8177   -7.6064   -6.1212 S   0  0  0  0  0  0  0  0  0  0  0  0
   17.7277   -6.4090   -5.3030 C   0  0  2  0  0  0  0  0  0  0  0  0
   18.5449   -5.4408   -4.5151 C   0  0  0  0  0  3  0  0  0  0  0  0
   19.0476   -4.3078   -5.3788 C   0  0  0  0  0  0  0  0  0  0  0  0
   20.0720   -3.4672   -4.6913 C   0  0  0  0  0  3  0  0  0  0  0  0
   21.3007   -3.3026   -5.5227 C   0  0  0  0  0  0  0  0  0  0  0  0
   21.1530   -2.3560   -6.6690 C   0  0  0  0  0  0  0  0  0  0  0  0
   20.5959   -1.0186   -6.2980 C   0  0  0  0  0  3  0  0  0  0  0  0
   20.9509   -0.7269   -4.8638 C   0  0  0  0  0  3  0  0  0  0  0  0
   20.0096    0.2782   -4.2382 C   0  0  0  0  0  0  0  0  0  0  0  0
   20.3620    1.6952   -4.5487 C   0  0  0  0  0  0  0  0  0  0  0  0
   20.4569    1.9814   -6.0309 C   0  0  0  0  0  3  0  0  0  0  0  0
   19.1318    2.2895   -6.6570 C   0  0  0  0  0  3  0  0  0  0  0  0
   19.2143    3.3411   -7.7385 C   0  0  0  0  0  0  0  0  0  0  0  0
   18.8125    4.7071   -7.1994 C   0  0  0  0  0  0  0  0  0  0  0  0
   20.0091    5.5349   -6.8264 C   0  0  0  0  0  0  0  0  0  0  0  0
   19.7575    7.0135   -6.9136 C   0  0  1  0  0  0  0  0  0  0  0  0
   18.2877    7.3441   -6.7124 C   0  0  0  0  0  0  0  0  0  0  0  0
   17.8662    6.6034   -5.5866 O   0  0  0  0  0  0  0  0  0  0  0  0
   16.4818    6.5331   -5.5577 C   0  0  0  0  0  0  0  0  0  0  0  0
   15.9361    6.5964   -4.1356 C   0  0  0  0  0  0  0  0  0  0  0  0
   16.9899    6.0881   -3.1912 C   0  0  1  0  0  0  0  0  0  0  0  0
   16.5107    6.2171   -1.7618 C   0  0  0  0  0  0  0  0  0  0  0  0
   20.6109    7.7575   -5.8826 C   0  0  0  0  0  0  0  0  0  0  0  0
   20.7829    6.9106   -4.6613 C   0  0  0  0  0  0  0  0  0  0  0  0
   20.5290    7.6979   -3.3828 C   0  0  0  0  0  0  0  0  0  0  0  0
   20.7370    9.1657   -3.6175 C   0  0  0  0  0  0  0  0  0  0  0  0
   20.0413    9.9861   -2.5750 C   0  0  0  0  0  3  0  0  0  0  0  0
   20.7176    9.7897   -1.2423 C   0  0  0  0  0  0  0  0  0  0  0  0
   20.5391    8.3970   -0.6953 C   0  0  0  0  0  3  0  0  0  0  0  0
   19.1138    8.1420   -0.3010 C   0  0  0  0  0  0  0  0  0  0  0  0
   18.6543    9.3115    0.5414 C   0  0  0  0  0  0  0  0  0  0  0  0
   17.2486    9.0143    1.0179 C   0  0  0  0  0  3  0  0  0  0  0  0
   17.0018    9.5258    2.4202 C   0  0  0  0  0  0  0  0  0  0  0  0
   15.9484    8.6911    3.1414 C   0  0  0  0  0  0  0  0  0  0  0  0
   14.6359    9.4594    2.9842 C   0  0  0  0  0  0  0  0  0  0  0  0
   13.5613    8.4479    2.7880 C   0  0  0  0  0  0  0  0  0  0  0  0
   13.7531    7.2948    2.1647 C   0  0  0  0  0  3  0  0  0  0  0  0
  1  2  1  0
  2  3  1  6
  2  4  1  0
  4  5  1  0
  5  6  1  0
  6  7  1  0
  7  8  1  6
  7  9  1  0
  9 10  1  0
 10 11  1  0
 11 12  1  0
 12 13  1  0
 13 14  1  0
 14 15  1  0
 16 15  1  6
 16 17  1  0
 17 18  1  0
 18 19  1  6
 18 20  1  0
 20 21  1  1
 21 22  1  0
 22 23  1  1
 22 24  1  0
 24 25  1  0
 25 26  1  0
 26 27  1  1
 26 28  1  0
 28 29  1  0
 30 29  1  1
 30 31  1  0
 31 32  1  0
 32 33  1  0
 33 34  1  0
 34 35  1  0
 35 36  1  0
 36 37  1  0
 37 38  1  0
 38 39  1  0
 39 40  1  0
 40 41  1  0
 41 42  1  0
 42 43  1  0
 43 44  1  0
 44 45  1  0
 45 46  1  0
 46 47  1  0
 47 48  1  0
 48 49  1  0
 49 50  1  0
 50 51  1  1
 45 52  1  1
 52 53  1  0
 53 54  1  0
 54 55  1  0
 55 56  1  0
 56 57  1  0
 57 58  1  0
 58 59  1  0
 59 60  1  0
 60 61  1  0
 61 62  1  0
 62 63  1  0
 63 64  1  0
 64 65  1  0
 65 66  2  0
 50  1  1  0
 31 16  1  0
 30 20  1  0
M  RAD  8   9   2  12   2  13   2  14   3  31   2  33   2  36   2  37   2
M  RAD  6  40   2  41   2  56   2  58   2  61   2  66   2
M  END
>  <docking_score>  (1) 
60.357999999999997

$$$$
