
     RDKit          3D

 19 19  0  0  0  0  0  0  0  0999 V2000
   15.7020   -5.3008   -6.8215 C   0  0  0  0  0  0  0  0  0  0  0  0
   15.3665   -5.2607   -5.4278 O   0  0  0  0  0  0  0  0  0  0  0  0
   15.4067   -4.0274   -4.7666 C   0  0  0  0  0  0  0  0  0  0  0  0
   14.8379   -2.9019   -5.3079 C   0  0  0  0  0  0  0  0  0  0  0  0
   14.8955   -1.7122   -4.6349 C   0  0  0  0  0  0  0  0  0  0  0  0
   15.5220   -1.6486   -3.4210 C   0  0  0  0  0  0  0  0  0  0  0  0
   16.0828   -2.7872   -2.9012 C   0  0  0  0  0  0  0  0  0  0  0  0
   16.0549   -4.0101   -3.5338 C   0  0  0  0  0  0  0  0  0  0  0  0
   16.6772   -5.2187   -2.9323 C   0  0  0  0  0  0  0  0  0  0  0  0
   17.9742   -4.8088   -2.3505 C   0  0  0  0  0  0  0  0  0  0  0  0
   19.1105   -4.8298   -2.9912 C   0  0  0  0  0  0  0  0  0  0  0  0
   20.2809   -4.4043   -2.2981 N   0  0  0  0  0  0  0  0  0  0  0  0
   20.3103   -3.1973   -1.5538 C   0  0  0  0  0  0  0  0  0  0  0  0
   20.1177   -2.0204   -2.1597 C   0  0  0  0  0  0  0  0  0  0  0  0
   20.1539   -0.7711   -1.3531 C   0  0  0  0  0  0  0  0  0  0  0  0
   19.2539   -5.2746   -4.4058 C   0  0  0  0  0  0  0  0  0  0  0  0
   19.2804   -4.0596   -5.3035 C   0  0  0  0  0  0  0  0  0  0  0  0
   20.7120   -3.8360   -5.8049 C   0  0  0  0  0  0  0  0  0  0  0  0
   21.3819   -5.4375   -6.1878 Cl  0  0  0  0  0  0  0  0  0  0  0  0
  1  2  1  0
  2  3  1  0
  3  4  2  0
  4  5  1  0
  5  6  2  0
  6  7  1  0
  7  8  2  0
  8  9  1  0
  9 10  1  0
 10 11  2  3
 11 12  1  0
 12 13  1  0
 13 14  2  3
 14 15  1  0
 11 16  1  0
 16 17  1  0
 17 18  1  0
 18 19  1  0
  8  3  1  0
M  END
>  <docking_score>  (1) 
-3.762

$$$$

     RDKit          3D

 19 19  0  0  0  0  0  0  0  0999 V2000
   14.3653   -4.5206   -8.6179 C   0  0  0  0  0  0  0  0  0  0  0  0
   15.4770   -4.3759   -7.7236 O   0  0  0  0  0  0  0  0  0  0  0  0
   15.4058   -3.4000   -6.7224 C   0  0  0  0  0  0  0  0  0  0  0  0
   15.4785   -2.0614   -7.0159 C   0  0  0  0  0  0  0  0  0  0  0  0
   15.4057   -1.1339   -6.0128 C   0  0  0  0  0  0  0  0  0  0  0  0
   15.2603   -1.5455   -4.7169 C   0  0  0  0  0  0  0  0  0  0  0  0
   15.1902   -2.8888   -4.4492 C   0  0  0  0  0  0  0  0  0  0  0  0
   15.2579   -3.8654   -5.4179 C   0  0  0  0  0  0  0  0  0  0  0  0
   15.1781   -5.3110   -5.0810 C   0  0  0  0  0  0  0  0  0  0  0  0
   16.2081   -5.5867   -4.0555 C   0  0  0  0  0  0  0  0  0  0  0  0
   17.4382   -5.9327   -4.3187 C   0  0  0  0  0  0  0  0  0  0  0  0
   18.3199   -6.1660   -3.2235 N   0  0  0  0  0  0  0  0  0  0  0  0
   19.0484   -5.1126   -2.6142 C   0  0  0  0  0  0  0  0  0  0  0  0
   18.4250   -4.0005   -2.2095 C   0  0  0  0  0  0  0  0  0  0  0  0
   19.2151   -2.9125   -1.5735 C   0  0  0  0  0  0  0  0  0  0  0  0
   17.9728   -6.0987   -5.6993 C   0  0  0  0  0  0  0  0  0  0  0  0
   18.8347   -4.9056   -6.0403 C   0  0  0  0  0  0  0  0  0  0  0  0
   20.1398   -5.3941   -6.6794 C   0  0  0  0  0  0  0  0  0  0  0  0
   20.3636   -7.0831   -6.1720 Cl  0  0  0  0  0  0  0  0  0  0  0  0
  1  2  1  0
  2  3  1  0
  3  4  2  0
  4  5  1  0
  5  6  2  0
  6  7  1  0
  7  8  2  0
  8  9  1  0
  9 10  1  0
 10 11  2  3
 11 12  1  0
 12 13  1  0
 13 14  2  3
 14 15  1  0
 11 16  1  0
 16 17  1  0
 17 18  1  0
 18 19  1  0
  8  3  1  0
M  END
>  <docking_score>  (2) 
-3.6389999999999998

$$$$

     RDKit          3D

 19 19  0  0  0  0  0  0  0  0999 V2000
   16.5133   -1.9261   -2.3054 C   0  0  0  0  0  0  0  0  0  0  0  0
   17.0272   -3.1807   -1.8377 O   0  0  0  0  0  0  0  0  0  0  0  0
   18.4025   -3.4197   -1.9430 C   0  0  0  0  0  0  0  0  0  0  0  0
   19.3275   -2.4817   -1.5584 C   0  0  0  0  0  0  0  0  0  0  0  0
   20.6644   -2.7480   -1.6750 C   0  0  0  0  0  0  0  0  0  0  0  0
   21.0755   -3.9520   -2.1763 C   0  0  0  0  0  0  0  0  0  0  0  0
   20.1318   -4.8728   -2.5539 C   0  0  0  0  0  0  0  0  0  0  0  0
   18.7747   -4.6589   -2.4588 C   0  0  0  0  0  0  0  0  0  0  0  0
   17.7873   -5.6867   -2.8813 C   0  0  0  0  0  0  0  0  0  0  0  0
   17.9947   -5.9366   -4.3246 C   0  0  0  0  0  0  0  0  0  0  0  0
   17.0460   -5.9241   -5.2200 C   0  0  0  0  0  0  0  0  0  0  0  0
   17.3983   -6.1834   -6.5764 N   0  0  0  0  0  0  0  0  0  0  0  0
   17.4448   -7.5021   -7.0966 C   0  0  0  0  0  0  0  0  0  0  0  0
   18.6126   -8.0561   -7.4410 C   0  0  0  0  0  0  0  0  0  0  0  0
   18.6303   -9.4409   -7.9836 C   0  0  0  0  0  0  0  0  0  0  0  0
   15.6150   -5.6553   -4.9045 C   0  0  0  0  0  0  0  0  0  0  0  0
   15.3585   -4.1700   -5.0088 C   0  0  0  0  0  0  0  0  0  0  0  0
   14.8122   -3.8509   -6.4053 C   0  0  0  0  0  0  0  0  0  0  0  0
   15.3065   -2.1863   -6.7861 Cl  0  0  0  0  0  0  0  0  0  0  0  0
  1  2  1  0
  2  3  1  0
  3  4  2  0
  4  5  1  0
  5  6  2  0
  6  7  1  0
  7  8  2  0
  8  9  1  0
  9 10  1  0
 10 11  2  3
 11 12  1  0
 12 13  1  0
 13 14  2  3
 14 15  1  0
 11 16  1  0
 16 17  1  0
 17 18  1  0
 18 19  1  0
  8  3  1  0
M  END
>  <docking_score>  (3) 
-3.492

$$$$
