
     RDKit          3D

 33 33  0  0  0  0  0  0  0  0999 V2000
    2.3179    4.7175    4.0375 C   0  0  0  0  0  0  0  0  0  0  0  0
    2.7575    5.3858    5.1785 O   0  0  0  0  0  0  0  0  0  0  0  0
    3.9228    6.0960    4.8396 C   0  0  0  0  0  3  0  0  0  0  0  0
    3.6501    7.4494    5.1407 O   0  0  0  0  0  0  0  0  0  0  0  0
    4.5926    8.2545    4.4877 C   0  0  2  0  0  0  0  0  0  0  0  0
    5.9168    8.0448    5.2162 C   0  0  0  0  0  0  0  0  0  0  0  0
    4.1487    9.5626    4.6015 O   0  0  0  0  0  0  0  0  0  0  0  0
    4.8471   10.2650    5.5523 C   0  0  1  0  0  0  0  0  0  0  0  0
    5.1386   11.6356    5.0664 C   0  0  0  0  0  3  0  0  0  0  0  0
    4.5149   12.7255    5.8992 C   0  0  0  0  0  3  0  0  0  0  0  0
    5.3318   13.9871    5.9154 C   0  0  2  0  0  0  0  0  0  0  0  0
    6.6232   13.8534    5.1283 C   0  0  0  0  0  0  0  0  0  0  0  0
    6.5248   14.8182    3.9647 C   0  0  0  0  0  0  0  0  0  0  0  0
    7.2018   14.2579    2.7305 C   0  0  0  0  0  0  0  0  0  0  0  0
    8.0117   13.2049    3.1011 O   0  0  0  0  0  0  0  0  0  0  0  0
    5.7290   14.2756    7.3513 C   0  0  0  0  0  0  0  0  0  0  0  0
    5.6632   13.0828    8.0789 O   0  0  0  0  0  0  0  0  0  0  0  0
    4.7136   13.2895    9.0844 C   0  0  0  0  0  3  0  0  0  0  0  0
    5.3453   14.2403   10.0903 C   0  0  2  0  0  0  0  0  0  0  0  0
    6.6185   14.6361    9.7087 O   0  0  0  0  0  1  0  0  0  0  0  0
    5.3739   13.5286   11.3121 O   0  0  0  0  0  0  0  0  0  0  0  0
    4.1584   12.9897   11.4148 O   0  0  0  0  0  0  0  0  0  0  0  0
    4.2402   11.7023   11.9867 C   0  0  1  0  0  0  0  0  0  0  0  0
    4.1863   11.9237   13.3807 O   0  0  0  0  0  0  0  0  0  0  0  0
    5.0948   11.1140   14.0537 C   0  0  0  0  0  3  0  0  0  0  0  0
    6.3171   11.1103   13.3593 O   0  0  0  0  0  0  0  0  0  0  0  0
    4.3169   10.1690    6.9335 C   0  0  0  0  0  3  0  0  0  0  0  0
    2.8929   10.5994    7.0903 C   0  0  0  0  0  3  0  0  0  0  0  0
    2.5163   10.4476    8.5624 C   0  0  0  0  0  3  0  0  0  0  0  0
    3.4465    9.6487    9.2227 O   0  0  0  0  0  0  0  0  0  0  0  0
    2.8666    9.0281   10.3044 C   0  0  0  0  0  3  0  0  0  0  0  0
    3.2466    9.6624   11.6298 C   0  0  0  0  0  3  0  0  0  0  0  0
    3.0679   11.0360   11.5623 O   0  0  0  0  0  0  0  0  0  0  0  0
  1  2  1  0
  2  3  1  0
  3  4  1  0
  4  5  1  0
  5  6  1  1
  5  7  1  0
  8  7  1  6
  8  9  1  0
  9 10  1  0
 10 11  1  0
 11 12  1  6
 12 13  1  0
 13 14  1  0
 14 15  1  0
 11 16  1  0
 16 17  1  0
 17 18  1  0
 18 19  1  0
 19 20  1  6
 19 21  1  0
 21 22  1  0
 22 23  1  0
 23 24  1  1
 24 25  1  0
 25 26  1  0
  8 27  1  0
 27 28  1  0
 28 29  1  0
 29 30  1  0
 30 31  1  0
 31 32  1  0
 32 33  1  0
 33 23  1  0
M  RAD  8   3   2   9   2  10   2  18   2  25   2  27   2  28   2  29   2
M  CHG  1  20  -1
M  RAD  2  31   2  32   2
M  END
>  <docking_score>  (1) 
-3.5089999999999999

$$$$

     RDKit          3D

 33 33  0  0  0  0  0  0  0  0999 V2000
    7.1156   13.0031    0.9063 C   0  0  0  0  0  0  0  0  0  0  0  0
    6.5926   11.7659    0.5354 O   0  0  0  0  0  0  0  0  0  0  0  0
    6.7606   10.8850    1.6184 C   0  0  0  0  0  3  0  0  0  0  0  0
    5.4985   10.2843    1.8255 O   0  0  0  0  0  0  0  0  0  0  0  0
    5.2112   10.3017    3.1967 C   0  0  2  0  0  0  0  0  0  0  0  0
    4.0524    9.3316    3.4063 C   0  0  0  0  0  0  0  0  0  0  0  0
    4.8522   11.6023    3.5137 O   0  0  0  0  0  0  0  0  0  0  0  0
    5.6953   12.1597    4.4431 C   0  0  1  0  0  0  0  0  0  0  0  0
    6.1263   13.5082    4.0011 C   0  0  0  0  0  3  0  0  0  0  0  0
    5.7025   14.6197    4.9260 C   0  0  0  0  0  3  0  0  0  0  0  0
    6.6727   15.7677    4.9413 C   0  0  2  0  0  0  0  0  0  0  0  0
    7.8820   15.5184    4.0579 C   0  0  0  0  0  0  0  0  0  0  0  0
    9.0827   16.0685    4.7997 C   0  0  0  0  0  0  0  0  0  0  0  0
   10.1371   14.9997    5.0032 C   0  0  0  0  0  0  0  0  0  0  0  0
   11.1145   15.1436    4.0409 O   0  0  0  0  0  0  0  0  0  0  0  0
    7.1969   15.9257    6.3567 C   0  0  0  0  0  0  0  0  0  0  0  0
    7.0277   14.7121    7.0313 O   0  0  0  0  0  0  0  0  0  0  0  0
    6.1804   14.9794    8.1111 C   0  0  0  0  0  3  0  0  0  0  0  0
    6.9927   15.7881    9.1116 C   0  0  2  0  0  0  0  0  0  0  0  0
    8.2781   16.0436    8.6579 O   0  0  0  0  0  1  0  0  0  0  0  0
    7.0106   15.0125   10.2941 O   0  0  0  0  0  0  0  0  0  0  0  0
    5.7459   14.6234   10.4592 O   0  0  0  0  0  0  0  0  0  0  0  0
    5.7006   13.3064   10.9638 C   0  0  1  0  0  0  0  0  0  0  0  0
    5.7670   13.4561   12.3668 O   0  0  0  0  0  0  0  0  0  0  0  0
    6.7369   12.6243   12.9156 C   0  0  0  0  0  3  0  0  0  0  0  0
    7.9914   12.9514   12.3719 O   0  0  0  0  0  0  0  0  0  0  0  0
    5.2492   12.0545    5.8530 C   0  0  0  0  0  3  0  0  0  0  0  0
    3.9049   12.6487    6.1317 C   0  0  0  0  0  3  0  0  0  0  0  0
    3.6096   12.4643    7.6186 C   0  0  0  0  0  3  0  0  0  0  0  0
    4.4720   11.5214    8.1725 O   0  0  0  0  0  0  0  0  0  0  0  0
    3.8901   10.9190    9.2635 C   0  0  0  0  0  3  0  0  0  0  0  0
    4.4341   11.4279   10.5859 C   0  0  0  0  0  3  0  0  0  0  0  0
    4.4276   12.8146   10.5948 O   0  0  0  0  0  0  0  0  0  0  0  0
  1  2  1  0
  2  3  1  0
  3  4  1  0
  4  5  1  0
  5  6  1  6
  5  7  1  0
  8  7  1  6
  8  9  1  0
  9 10  1  0
 10 11  1  0
 11 12  1  6
 12 13  1  0
 13 14  1  0
 14 15  1  0
 11 16  1  0
 16 17  1  0
 17 18  1  0
 18 19  1  0
 19 20  1  6
 19 21  1  0
 21 22  1  0
 22 23  1  0
 23 24  1  1
 24 25  1  0
 25 26  1  0
  8 27  1  0
 27 28  1  0
 28 29  1  0
 29 30  1  0
 30 31  1  0
 31 32  1  0
 32 33  1  0
 33 23  1  0
M  RAD  8   3   2   9   2  10   2  18   2  25   2  27   2  28   2  29   2
M  CHG  1  20  -1
M  RAD  2  31   2  32   2
M  END
>  <docking_score>  (2) 
-3.383

$$$$

     RDKit          3D

 33 33  0  0  0  0  0  0  0  0999 V2000
   13.4433   15.6463   12.0912 C   0  0  0  0  0  0  0  0  0  0  0  0
   12.0732   15.4206   11.9758 O   0  0  0  0  0  0  0  0  0  0  0  0
   11.8222   14.0904   12.3562 C   0  0  0  0  0  3  0  0  0  0  0  0
   10.4266   14.0050   12.5603 O   0  0  0  0  0  0  0  0  0  0  0  0
   10.0019   15.1480   13.2503 C   0  0  2  0  0  0  0  0  0  0  0  0
    9.9803   14.7751   14.7296 C   0  0  0  0  0  0  0  0  0  0  0  0
    8.7331   15.4500   12.7812 O   0  0  0  0  0  0  0  0  0  0  0  0
    8.1839   14.4119   12.0699 C   0  0  1  0  0  0  0  0  0  0  0  0
    7.0164   13.8543   12.7949 C   0  0  0  0  0  3  0  0  0  0  0  0
    5.7153   13.9760   12.0448 C   0  0  0  0  0  3  0  0  0  0  0  0
    4.7603   12.8555   12.3479 C   0  0  2  0  0  0  0  0  0  0  0  0
    5.3489   11.8323   13.3027 C   0  0  0  0  0  0  0  0  0  0  0  0
    4.4509   11.8091   14.5223 C   0  0  0  0  0  0  0  0  0  0  0  0
    3.8433   10.4365   14.7286 C   0  0  0  0  0  0  0  0  0  0  0  0
    4.0160    9.6916   13.5808 O   0  0  0  0  0  0  0  0  0  0  0  0
    4.4675   12.1198   11.0532 C   0  0  0  0  0  0  0  0  0  0  0  0
    5.5105   12.3685   10.1551 O   0  0  0  0  0  0  0  0  0  0  0  0
    4.9339   13.0069    9.0526 C   0  0  0  0  0  3  0  0  0  0  0  0
    4.1236   11.9521    8.3139 C   0  0  2  0  0  0  0  0  0  0  0  0
    4.1652   10.7199    8.9491 O   0  0  0  0  0  1  0  0  0  0  0  0
    4.6907   11.8818    7.0202 O   0  0  0  0  0  0  0  0  0  0  0  0
    4.8290   13.1540    6.6451 O   0  0  0  0  0  0  0  0  0  0  0  0
    6.0209   13.3205    5.9083 C   0  0  1  0  0  0  0  0  0  0  0  0
    5.6608   13.0360    4.5724 O   0  0  0  0  0  0  0  0  0  0  0  0
    4.6616   13.8949    4.1275 C   0  0  0  0  0  3  0  0  0  0  0  0
    3.5286   13.1436    3.7695 O   0  0  0  0  0  0  0  0  0  0  0  0
    7.9840   14.6657   10.6229 C   0  0  0  0  0  3  0  0  0  0  0  0
    7.1345   15.8554   10.3061 C   0  0  0  0  0  3  0  0  0  0  0  0
    7.0248   15.9623    8.7867 C   0  0  0  0  0  3  0  0  0  0  0  0
    7.9981   15.1783    8.1723 O   0  0  0  0  0  0  0  0  0  0  0  0
    8.3102   15.6828    6.9314 C   0  0  0  0  0  3  0  0  0  0  0  0
    7.6946   14.8894    5.7935 C   0  0  0  0  0  3  0  0  0  0  0  0
    6.3435   14.6910    6.0354 O   0  0  0  0  0  0  0  0  0  0  0  0
  1  2  1  0
  2  3  1  0
  3  4  1  0
  4  5  1  0
  5  6  1  1
  5  7  1  0
  8  7  1  1
  8  9  1  0
  9 10  1  0
 10 11  1  0
 11 12  1  1
 12 13  1  0
 13 14  1  0
 14 15  1  0
 11 16  1  0
 16 17  1  0
 17 18  1  0
 18 19  1  0
 19 20  1  1
 19 21  1  0
 21 22  1  0
 22 23  1  0
 23 24  1  6
 24 25  1  0
 25 26  1  0
  8 27  1  0
 27 28  1  0
 28 29  1  0
 29 30  1  0
 30 31  1  0
 31 32  1  0
 32 33  1  0
 33 23  1  0
M  RAD  8   3   2   9   2  10   2  18   2  25   2  27   2  28   2  29   2
M  CHG  1  20  -1
M  RAD  2  31   2  32   2
M  END
>  <docking_score>  (3) 
-3.1869999999999998

$$$$
