
     RDKit          3D

 17 16  0  0  0  0  0  0  0  0999 V2000
   18.2164   -3.4498   -1.7111 C   0  0  0  0  0  0  0  0  0  0  0  0
   18.7363   -4.3761   -2.7879 C   0  0  0  0  0  0  0  0  0  0  0  0
   20.1826   -4.6994   -2.4946 C   0  0  0  0  0  0  0  0  0  0  0  0
   17.9565   -5.6637   -2.7508 C   0  0  0  0  0  0  0  0  0  0  0  0
   18.2541   -6.4187   -4.0288 C   0  0  0  0  0  0  0  0  0  0  0  0
   17.7892   -5.6172   -5.2227 C   0  0  0  0  0  0  0  0  0  0  0  0
   17.1073   -6.5744   -6.1780 C   0  0  1  0  0  0  0  0  0  0  0  0
   17.0170   -7.9351   -5.4825 C   0  0  0  0  0  0  0  0  0  0  0  0
   15.7032   -6.0322   -6.4039 C   0  0  0  0  0  3  0  0  0  0  0  0
   15.6655   -4.6007   -5.9724 C   0  0  0  0  0  0  0  0  0  0  0  0
   14.9342   -3.7810   -7.0071 C   0  0  0  0  0  0  0  0  0  0  0  0
   15.5737   -2.4122   -7.0368 C   0  0  2  0  0  0  0  0  0  0  0  0
   16.5303   -2.3209   -8.1810 C   0  0  0  0  0  0  0  0  0  0  0  0
   16.1606   -2.0263   -5.7131 C   0  0  0  0  0  0  0  0  0  0  0  0
   15.2142   -1.0933   -5.0451 C   0  0  0  0  0  0  0  0  0  0  0  0
   14.8936   -1.2750   -3.6727 N   0  0  0  0  0  1  0  0  0  0  0  0
   14.7147   -0.1453   -5.7416 N   0  0  0  0  0  2  0  0  0  0  0  0
  1  2  1  0
  2  3  1  0
  2  4  1  0
  4  5  1  0
  5  6  1  0
  6  7  1  0
  7  8  1  1
  7  9  1  0
  9 10  1  0
 10 11  1  0
 11 12  1  0
 12 13  1  6
 12 14  1  0
 14 15  1  0
 15 16  1  0
 15 17  2  0
M  CHG  2  16   1  17  -1
M  RAD  2   9   2  16   2
M  END
>  <docking_score>  (1) 
-3.6760000000000002

$$$$

     RDKit          3D

 17 16  0  0  0  0  0  0  0  0999 V2000
   14.3353   -0.5176   -5.0419 C   0  0  0  0  0  0  0  0  0  0  0  0
   15.2618   -0.9497   -6.1567 C   0  0  0  0  0  0  0  0  0  0  0  0
   16.6604   -1.0845   -5.6018 C   0  0  0  0  0  0  0  0  0  0  0  0
   14.8308   -2.3013   -6.6615 C   0  0  0  0  0  0  0  0  0  0  0  0
   15.4252   -2.4880   -8.0412 C   0  0  0  0  0  0  0  0  0  0  0  0
   14.9827   -3.8123   -8.6197 C   0  0  0  0  0  0  0  0  0  0  0  0
   14.7927   -4.7743   -7.4654 C   0  0  1  0  0  0  0  0  0  0  0  0
   13.4534   -5.4860   -7.6729 C   0  0  0  0  0  0  0  0  0  0  0  0
   15.9213   -5.7910   -7.5602 C   0  0  0  0  0  3  0  0  0  0  0  0
   16.5370   -5.9534   -6.2069 C   0  0  0  0  0  0  0  0  0  0  0  0
   17.3959   -4.7521   -5.8961 C   0  0  0  0  0  0  0  0  0  0  0  0
   17.5274   -4.6647   -4.3932 C   0  0  2  0  0  0  0  0  0  0  0  0
   16.2053   -4.3267   -3.7845 C   0  0  0  0  0  0  0  0  0  0  0  0
   18.6473   -3.7643   -3.9685 C   0  0  0  0  0  0  0  0  0  0  0  0
   19.1473   -4.2422   -2.6518 C   0  0  0  0  0  0  0  0  0  0  0  0
   18.7860   -3.5491   -1.4650 N   0  0  0  0  0  1  0  0  0  0  0  0
   19.8970   -5.2771   -2.6347 N   0  0  0  0  0  2  0  0  0  0  0  0
  1  2  1  0
  2  3  1  0
  2  4  1  0
  4  5  1  0
  5  6  1  0
  6  7  1  0
  7  8  1  6
  7  9  1  0
  9 10  1  0
 10 11  1  0
 11 12  1  0
 12 13  1  1
 12 14  1  0
 14 15  1  0
 15 16  1  0
 15 17  2  0
M  CHG  2  16   1  17  -1
M  RAD  2   9   2  16   2
M  END
>  <docking_score>  (2) 
-3.4649999999999999

$$$$

     RDKit          3D

 17 16  0  0  0  0  0  0  0  0999 V2000
    8.3508   15.6798    2.0572 C   0  0  0  0  0  0  0  0  0  0  0  0
    8.7464   14.7192    3.1566 C   0  0  0  0  0  0  0  0  0  0  0  0
   10.2536   14.6869    3.2549 C   0  0  0  0  0  0  0  0  0  0  0  0
    8.2066   15.2214    4.4695 C   0  0  0  0  0  0  0  0  0  0  0  0
    6.8082   14.6655    4.6347 C   0  0  0  0  0  0  0  0  0  0  0  0
    6.8528   13.1551    4.6656 C   0  0  0  0  0  0  0  0  0  0  0  0
    5.6606   12.6468    3.8820 C   0  0  1  0  0  0  0  0  0  0  0  0
    4.7589   13.8470    3.5825 C   0  0  0  0  0  0  0  0  0  0  0  0
    6.2077   12.0917    2.5748 C   0  0  0  0  0  3  0  0  0  0  0  0
    6.5996   10.6637    2.7854 C   0  0  0  0  0  0  0  0  0  0  0  0
    5.6109    9.7613    2.0888 C   0  0  0  0  0  0  0  0  0  0  0  0
    4.8079    9.0569    3.1577 C   0  0  2  0  0  0  0  0  0  0  0  0
    3.4583    9.6867    3.2797 C   0  0  0  0  0  0  0  0  0  0  0  0
    5.5532    8.9456    4.4529 C   0  0  0  0  0  0  0  0  0  0  0  0
    4.9282    7.8571    5.2509 C   0  0  0  0  0  0  0  0  0  0  0  0
    4.2656    8.1657    6.4695 N   0  0  0  0  0  1  0  0  0  0  0  0
    5.0110    6.6626    4.8040 N   0  0  0  0  0  2  0  0  0  0  0  0
  1  2  1  0
  2  3  1  0
  2  4  1  0
  4  5  1  0
  5  6  1  0
  6  7  1  0
  7  8  1  6
  7  9  1  0
  9 10  1  0
 10 11  1  0
 11 12  1  0
 12 13  1  1
 12 14  1  0
 14 15  1  0
 15 16  1  0
 15 17  2  0
M  CHG  2  16   1  17  -1
M  RAD  2   9   2  16   2
M  END
>  <docking_score>  (3) 
-3.399

$$$$
