
     RDKit          3D

100101  0  0  0  0  0  0  0  0999 V2000
   14.5248   -3.3900   -1.2913 C   0  0  2  0  0  0  0  0  0  0  0  0
   13.2176   -2.5200   -1.4012 C   0  0  1  0  0  0  0  0  0  0  0  0
   12.5613   -2.6367   -0.0351 C   0  0  0  0  0  0  0  0  0  0  0  0
   13.6586   -1.0788   -1.5435 C   0  0  0  0  0  0  0  0  0  0  0  0
   12.5011   -0.2539   -2.0918 C   0  0  0  0  0  0  0  0  0  0  0  0
   12.4778   -0.3351   -3.6074 C   0  0  0  0  0  0  0  0  0  0  0  0
   11.0696   -0.5060   -4.1107 C   0  0  1  0  0  0  0  0  0  0  0  0
   10.0269   -0.3747   -3.0381 C   0  0  0  0  0  0  0  0  0  0  0  0
   10.7547    0.4487   -5.2529 C   0  0  0  0  0  3  0  0  0  0  0  0
    9.6048   -0.0638   -6.1119 C   0  0  0  0  0  0  0  0  0  0  0  0
    8.2820    0.6112   -5.7597 C   0  0  0  0  0  3  0  0  0  0  0  0
    8.3501    2.1056   -6.0909 C   0  0  1  0  0  0  0  0  0  0  0  0
    7.3966    2.3184   -7.2617 C   0  0  0  0  0  0  0  0  0  0  0  0
    7.7865    2.8837   -4.8791 C   0  0  0  0  0  0  0  0  0  0  0  0
    6.9609    1.9109   -4.0641 C   0  0  0  0  0  0  0  0  0  0  0  0
    5.5142    1.9676   -4.6009 C   0  0  0  0  0  3  0  0  0  0  0  0
    5.0790    3.3351   -4.5999 C   0  0  0  0  0  0  0  0  0  0  0  0
    4.7331    4.4384   -4.6167 C   0  0  0  0  0  0  0  0  0  0  0  0
    4.3360    5.7824   -4.6415 C   0  0  0  0  0  0  0  0  0  0  0  0
    4.8579    6.6674   -3.5924 C   0  0  0  0  0  0  0  0  0  0  0  0
    3.7390    7.0725   -2.6506 C   0  0  0  0  0  0  0  0  0  0  0  0
    4.1460    6.7022   -1.2171 C   0  0  0  0  0  0  0  0  0  0  0  0
    3.0778    7.1749   -0.2491 C   0  0  0  0  0  0  0  0  0  0  0  0
    3.4425    7.0113    1.1429 C   0  0  1  0  0  0  0  0  0  0  0  0
    4.4617    5.9819    1.4870 C   0  0  0  0  0  0  0  0  0  0  0  0
    3.5762    8.1566    1.9554 C   0  0  0  0  0  0  0  0  0  0  0  0
    3.6734    8.9259    2.5050 C   0  0  0  0  0  0  0  0  0  0  0  0
    3.8083   10.2052    3.4071 C   0  0  0  0  0  0  0  0  0  0  0  0
    2.3403   10.4315    3.8613 C   0  0  0  0  0  0  0  0  0  0  0  0
    2.3416   11.3913    4.9349 C   0  0  0  0  0  0  0  0  0  0  0  0
    2.3493   12.1396    5.7650 C   0  0  0  0  0  0  0  0  0  0  0  0
    2.3478   13.0634    6.8079 C   0  0  0  0  0  0  0  0  0  0  0  0
    3.4686   12.9229    7.7424 C   0  0  0  0  0  0  0  0  0  0  0  0
    3.8669   11.7929    8.2897 C   0  0  0  0  0  0  0  0  0  0  0  0
    4.0802   11.7900    9.5674 C   0  0  0  0  0  0  0  0  0  0  0  0
    5.3585   11.4882   10.2237 C   0  0  0  0  0  0  0  0  0  0  0  0
    5.4077   12.1924   11.5979 C   0  0  0  0  0  3  0  0  0  0  0  0
    5.5220   11.1689   12.6855 C   0  0  0  0  0  0  0  0  0  0  0  0
    6.6560   11.4270   13.6343 C   0  0  0  0  0  3  0  0  0  0  0  0
    7.6926   10.5178   13.5427 C   0  0  0  0  0  0  0  0  0  0  0  0
    8.5521    9.7661   13.4841 C   0  0  0  0  0  0  0  0  0  0  0  0
    9.4816    8.9382   13.4339 C   0  0  0  0  0  0  0  0  0  0  0  0
   10.3869    8.1109   13.3786 C   0  0  0  0  0  0  0  0  0  0  0  0
   11.2607    7.3201   13.3070 C   0  0  0  0  0  0  0  0  0  0  0  0
   12.3768    7.4132   12.2258 C   0  0  0  0  0  0  0  0  0  0  0  0
   13.6283    6.8019   12.8827 C   0  0  1  0  0  0  0  0  0  0  0  0
   13.5038    6.7453   14.3687 C   0  0  0  0  0  0  0  0  0  0  0  0
   13.9559    5.5309   12.2260 C   0  0  0  0  0  0  0  0  0  0  0  0
   15.0453    4.7870   13.0252 C   0  0  0  0  0  0  0  0  0  0  0  0
   16.2310    5.5968   13.3449 C   0  0  0  0  0  0  0  0  0  0  0  0
   17.4606    5.0360   12.6764 C   0  0  0  0  0  3  0  0  0  0  0  0
   17.6312    3.5545   12.8002 C   0  0  0  0  0  3  0  0  0  0  0  0
   18.0858    3.0232   11.4250 C   0  0  0  0  0  3  0  0  0  0  0  0
   19.3674    2.1757   11.5925 C   0  0  0  0  0  0  0  0  0  0  0  0
   19.3492    0.8876   10.7787 C   0  0  0  0  0  3  0  0  0  0  0  0
   20.6010    0.0790   11.1432 C   0  0  0  0  0  0  0  0  0  0  0  0
   20.1141   -1.4065   10.7737 C   0  0  0  0  0  3  0  0  0  0  0  0
   19.0604   -1.5406   10.3004 C   0  0  0  0  0  0  0  0  0  0  0  0
   17.8814   -1.7172    9.4973 C   0  0  0  0  0  0  0  0  0  0  0  0
   18.1156   -1.8399    8.1636 C   0  0  0  0  0  0  0  0  0  0  0  0
   18.2197   -1.8143    6.9365 C   0  0  0  0  0  0  0  0  0  0  0  0
   19.1368   -2.8527    6.2911 C   0  0  0  0  0  0  0  0  0  0  0  0
   17.6118   -0.8566    6.0036 C   0  0  0  0  0  0  0  0  0  0  0  0
   18.6309   -0.5880    4.8762 C   0  0  0  0  0  0  0  0  0  0  0  0
   18.3410   -1.6500    3.8011 C   0  0  0  0  0  0  0  0  0  0  0  0
   16.9663   -1.2904    3.2986 C   0  0  0  0  0  0  0  0  0  0  0  0
   16.2409   -0.1272    3.9335 C   0  0  0  0  0  2  0  0  0  0  0  0
   16.4398   -1.9707    2.3358 C   0  0  0  0  0  0  0  0  0  0  0  0
   16.9851   -3.1023    1.5909 C   0  0  0  0  0  3  0  0  0  0  0  0
   16.0046   -3.7325    0.6550 C   0  0  0  0  0  3  0  0  0  0  0  0
   15.3991   -2.7727   -0.3130 C   0  0  0  0  0  3  0  0  0  0  0  0
   16.3890   -1.8629   -0.9038 C   0  0  0  0  0  0  0  0  0  0  0  0
   17.7996   -2.1010   -0.4868 C   0  0  0  0  0  0  0  0  0  0  0  0
   18.6527   -2.4811   -1.6509 C   0  0  0  0  0  3  0  0  0  0  0  0
   19.1330   -3.8972   -1.5264 C   0  0  0  0  0  0  0  0  0  0  0  0
   18.5753   -4.8613   -2.1995 C   0  0  0  0  0  0  0  0  0  0  0  0
   17.8445   -5.7522   -1.6313 C   0  0  0  0  0  0  0  0  0  0  0  0
   17.6815   -6.9295   -2.1782 C   0  0  0  0  0  0  0  0  0  0  0  0
   18.5966   -7.3927   -3.2677 C   0  0  0  0  0  0  0  0  0  0  0  0
   19.9763   -6.9481   -3.0681 C   0  0  0  0  0  0  0  0  0  0  0  0
   20.7696   -6.9327   -4.3894 C   0  0  1  0  0  0  0  0  0  0  0  0
   20.1054   -7.6587   -5.4994 C   0  0  0  0  0  0  0  0  0  0  0  0
   20.9855   -5.4711   -4.7204 C   0  0  0  0  0  3  0  0  0  0  0  0
   20.6923   -5.1810   -6.1618 C   0  0  0  0  0  3  0  0  0  0  0  0
   19.3567   -4.5613   -6.2943 C   0  0  0  0  0  0  0  0  0  0  0  0
   18.8021   -4.4147   -7.5184 C   0  0  0  0  0  0  0  0  0  0  0  0
   17.4567   -3.7387   -7.5497 C   0  0  0  0  0  0  0  0  0  0  0  0
   17.1340   -2.9686   -6.5495 C   0  0  0  0  0  0  0  0  0  0  0  0
   15.9303   -2.2537   -6.3580 C   0  0  0  0  0  0  0  0  0  0  0  0
   15.4612   -1.6722   -5.2848 C   0  0  0  0  0  0  0  0  0  0  0  0
   16.0206   -1.5970   -3.9815 C   0  0  0  0  0  0  0  0  0  0  0  0
   15.3970   -1.9104   -2.9002 C   0  0  0  0  0  0  0  0  0  0  0  0
   15.2305   -3.3509   -2.6579 C   0  0  0  0  0  0  0  0  0  0  0  0
   15.5245   -4.1430   -3.4215 C   0  0  0  0  0  0  0  0  0  0  0  0
   15.8927   -5.0711   -4.3140 C   0  0  0  0  0  0  0  0  0  0  0  0
   16.3020   -6.0730   -5.2530 C   0  0  0  0  0  0  0  0  0  0  0  0
   16.7103   -7.0221   -6.1541 C   0  0  0  0  0  0  0  0  0  0  0  0
   17.0255   -7.7343   -6.8474 C   0  0  0  0  0  0  0  0  0  0  0  0
   17.4936   -8.7407   -7.8185 C   0  0  0  0  0  0  0  0  0  0  0  0
   17.9402   -9.7152   -8.7377 C   0  0  0  0  0  2  0  0  0  0  0  0
  1  2  1  0
  2  3  1  1
  2  4  1  0
  4  5  1  0
  5  6  1  0
  6  7  1  0
  7  8  1  1
  7  9  1  0
  9 10  1  0
 10 11  1  0
 11 12  1  0
 12 13  1  6
 12 14  1  0
 14 15  1  0
 15 16  1  0
 16 17  1  0
 17 18  3  0
 18 19  1  0
 19 20  1  0
 20 21  1  0
 21 22  1  0
 22 23  1  0
 23 24  1  0
 24 25  1  6
 24 26  1  0
 26 27  3  0
 27 28  1  0
 28 29  1  0
 29 30  1  0
 30 31  3  0
 31 32  1  0
 32 33  1  0
 33 34  2  0
 34 35  2  0
 35 36  1  0
 36 37  1  0
 37 38  1  0
 38 39  1  0
 39 40  1  0
 40 41  3  0
 41 42  1  0
 42 43  3  0
 43 44  1  0
 44 45  1  0
 45 46  1  0
 46 47  1  1
 46 48  1  0
 48 49  1  0
 49 50  1  0
 50 51  1  0
 51 52  1  0
 52 53  1  0
 53 54  1  0
 54 55  1  0
 55 56  1  0
 56 57  1  0
 57 58  1  0
 58 59  2  3
 59 60  1  0
 60 61  2  3
 61 62  1  0
 61 63  1  0
 63 64  1  0
 64 65  1  0
 65 66  1  0
 66 67  1  0
 66 68  2  3
 68 69  1  0
 69 70  1  0
 70 71  1  0
 71 72  1  0
 72 73  1  0
 73 74  1  0
 74 75  1  0
 75 76  2  0
 76 77  2  0
 77 78  2  0
 78 79  1  0
 79 80  1  0
 80 81  1  0
 81 82  1  6
 81 83  1  0
 83 84  1  0
 84 85  1  0
 85 86  2  3
 86 87  1  0
 87 88  2  3
 88 89  1  0
 89 90  2  3
 90 91  1  0
 91 92  2  0
 92 93  2  0
 93 94  1  0
 94 95  3  0
 95 96  1  0
 96 97  3  0
 97 98  1  0
 98 99  3  0
 99100  1  0
 71  1  1  0
  1 93  1  6
M  RAD  8   9   2  11   2  16   2  37   2  39   2  51   2  52   2  53   2
M  RAD  8  55   2  57   2  67   3  69   2  70   2  71   2  74   2  83   2
M  RAD  2  84   2 100   3
M  END
>  <docking_score>  (1) 
602.70299999999997

$$$$
