
     RDKit          3D

 15 14  0  0  0  0  0  0  0  0999 V2000
   16.7323   -3.0200   -2.3347 C   0  0  0  0  0  0  0  0  0  0  0  0
   16.4682   -4.5017   -2.0712 C   0  0  0  0  0  0  0  0  0  0  0  0
   17.5656   -5.3736   -2.6247 C   0  0  0  0  0  0  0  0  0  0  0  0
   17.4808   -5.3960   -4.1151 C   0  0  0  0  0  0  0  0  0  0  0  0
   16.2939   -6.1761   -4.5634 C   0  0  0  0  0  0  0  0  0  0  0  0
   15.7160   -5.5718   -5.8408 C   0  0  0  0  0  0  0  0  0  0  0  0
   14.2725   -5.5906   -5.7238 N   0  0  0  0  0  0  0  0  0  0  0  0
   13.7151   -4.2761   -5.5729 C   0  0  0  0  0  0  0  0  0  0  0  0
   14.7343   -3.3547   -5.3196 O   0  0  0  0  0  0  0  0  0  0  0  0
   14.6709   -1.9960   -5.4994 C   0  0  0  0  0  0  0  0  0  0  0  0
   14.0814   -1.1477   -4.4517 C   0  0  0  0  0  0  0  0  0  0  0  0
   15.1283   -1.4426   -6.5923 C   0  0  0  0  0  0  0  0  0  0  0  0
   15.7310   -2.1890   -7.6919 C   0  0  0  0  0  0  0  0  0  0  0  0
   17.2059   -2.3377   -7.6894 C   0  0  0  0  0  0  0  0  0  0  0  0
   15.0439   -2.6939   -8.6143 O   0  0  0  0  0  0  0  0  0  0  0  0
  1  2  1  0
  2  3  1  0
  3  4  1  0
  4  5  1  0
  5  6  1  0
  6  7  1  0
  7  8  1  0
  8  9  1  0
  9 10  1  0
 10 11  1  0
 10 12  2  3
 12 13  1  0
 13 14  1  0
 13 15  2  0
M  END
>  <docking_score>  (1) 
-3.589

$$$$

     RDKit          3D

 15 14  0  0  0  0  0  0  0  0999 V2000
   14.5837   -7.1569   -4.4867 C   0  0  0  0  0  0  0  0  0  0  0  0
   14.3340   -6.0463   -5.5059 C   0  0  0  0  0  0  0  0  0  0  0  0
   15.6006   -5.6408   -6.2146 C   0  0  0  0  0  0  0  0  0  0  0  0
   16.5566   -5.0533   -5.2299 C   0  0  0  0  0  0  0  0  0  0  0  0
   17.9338   -5.5721   -5.4589 C   0  0  0  0  0  0  0  0  0  0  0  0
   18.9064   -4.4144   -5.6700 C   0  0  0  0  0  0  0  0  0  0  0  0
   18.2706   -3.2091   -5.1793 N   0  0  0  0  0  0  0  0  0  0  0  0
   18.6252   -2.0482   -5.9460 C   0  0  0  0  0  0  0  0  0  0  0  0
   17.4692   -1.4071   -6.3985 O   0  0  0  0  0  0  0  0  0  0  0  0
   16.5091   -1.9387   -7.2218 C   0  0  0  0  0  0  0  0  0  0  0  0
   16.8955   -2.5033   -8.5244 C   0  0  0  0  0  0  0  0  0  0  0  0
   15.2513   -1.9507   -6.8641 C   0  0  0  0  0  0  0  0  0  0  0  0
   14.7604   -1.4182   -5.5973 C   0  0  0  0  0  0  0  0  0  0  0  0
   14.4433    0.0288   -5.5414 C   0  0  0  0  0  0  0  0  0  0  0  0
   14.6055   -2.1414   -4.5820 O   0  0  0  0  0  0  0  0  0  0  0  0
  1  2  1  0
  2  3  1  0
  3  4  1  0
  4  5  1  0
  5  6  1  0
  6  7  1  0
  7  8  1  0
  8  9  1  0
  9 10  1  0
 10 11  1  0
 10 12  2  3
 12 13  1  0
 13 14  1  0
 13 15  2  0
M  END
>  <docking_score>  (2) 
-3.3599999999999999

$$$$

     RDKit          3D

 15 14  0  0  0  0  0  0  0  0999 V2000
   13.6297   -0.0400   -4.5558 C   0  0  0  0  0  0  0  0  0  0  0  0
   14.7033   -1.1225   -4.4554 C   0  0  0  0  0  0  0  0  0  0  0  0
   15.7448   -0.9807   -5.5352 C   0  0  0  0  0  0  0  0  0  0  0  0
   15.2786   -1.6751   -6.7719 C   0  0  0  0  0  0  0  0  0  0  0  0
   16.4303   -2.2599   -7.5134 C   0  0  0  0  0  0  0  0  0  0  0  0
   17.6614   -2.3237   -6.6128 C   0  0  0  0  0  0  0  0  0  0  0  0
   17.9791   -3.7204   -6.3983 N   0  0  0  0  0  0  0  0  0  0  0  0
   18.7792   -3.9291   -5.2246 C   0  0  0  0  0  0  0  0  0  0  0  0
   18.3282   -3.1054   -4.1901 O   0  0  0  0  0  0  0  0  0  0  0  0
   17.7068   -3.5095   -3.0356 C   0  0  0  0  0  0  0  0  0  0  0  0
   16.3613   -4.1012   -3.0994 C   0  0  0  0  0  0  0  0  0  0  0  0
   18.2954   -3.3758   -1.8755 C   0  0  0  0  0  0  0  0  0  0  0  0
   19.6260   -2.8030   -1.6993 C   0  0  0  0  0  0  0  0  0  0  0  0
   19.7172   -1.3384   -1.4898 C   0  0  0  0  0  0  0  0  0  0  0  0
   20.6661   -3.5069   -1.7209 O   0  0  0  0  0  0  0  0  0  0  0  0
  1  2  1  0
  2  3  1  0
  3  4  1  0
  4  5  1  0
  5  6  1  0
  6  7  1  0
  7  8  1  0
  8  9  1  0
  9 10  1  0
 10 11  1  0
 10 12  2  3
 12 13  1  0
 13 14  1  0
 13 15  2  0
M  END
>  <docking_score>  (3) 
-3.2080000000000002

$$$$
