
     RDKit          3D

 24 25  0  0  0  0  0  0  0  0999 V2000
   15.4639   -5.5820   -8.7398 C   0  0  0  0  0  0  0  0  0  0  0  0
   16.1732   -6.0143   -7.4908 C   0  0  1  0  0  0  0  0  0  0  0  0
   17.2541   -7.0176   -7.7063 C   0  0  0  0  0  0  0  0  0  0  0  0
   18.6260   -6.4488   -7.8590 C   0  0  2  0  0  0  0  0  0  0  0  0
   19.5941   -7.4260   -7.6018 O   0  0  0  0  0  0  0  0  0  0  0  0
   18.9230   -5.2896   -6.9562 C   0  0  2  0  0  0  0  0  0  0  0  0
   18.9943   -5.6261   -5.6170 O   0  0  0  0  0  0  0  0  0  0  0  0
   17.8243   -4.2567   -7.1741 C   0  0  1  0  0  0  0  0  0  0  0  0
   17.6469   -4.1807   -8.5647 O   0  0  0  0  0  0  0  0  0  0  0  0
   16.5655   -4.8870   -6.5890 C   0  0  1  0  0  0  0  0  0  0  0  0
   15.2960   -3.5938   -6.5929 S   0  0  0  0  0  0  0  0  0  0  0  0
   15.3650   -2.8201   -4.9508 C   0  0  1  0  0  0  0  0  0  0  0  0
   16.0590   -3.7244   -3.9392 C   0  0  0  0  0  0  0  0  0  0  0  0
   16.5390   -2.8022   -2.8245 C   0  0  1  0  0  0  0  0  0  0  0  0
   15.5183   -1.8582   -2.6423 O   0  0  0  0  0  0  0  0  0  0  0  0
   16.7639   -3.5414   -1.5355 C   0  0  0  0  0  0  0  0  0  0  0  0
   16.3109   -4.8528   -1.6527 O   0  0  0  0  0  0  0  0  0  0  0  0
   17.8029   -2.1093   -3.3203 C   0  0  1  0  0  0  0  0  0  0  0  0
   18.8491   -3.0255   -3.2551 O   0  0  0  0  0  0  0  0  0  0  0  0
   17.5686   -1.7786   -4.7898 C   0  0  2  0  0  0  0  0  0  0  0  0
   18.3864   -0.6020   -5.2455 C   0  0  0  0  0  2  0  0  0  0  0  0
   16.1017   -1.5178   -4.9516 C   0  0  1  0  0  0  0  0  0  0  0  0
   15.7849   -0.6843   -6.0033 O   0  0  0  0  0  0  0  0  0  0  0  0
   14.1119   -0.2909   -5.8325 S   0  0  0  0  0  0  0  0  0  0  0  0
  2  1  1  6
  2  3  1  0
  3  4  1  0
  4  5  1  1
  4  6  1  0
  6  7  1  1
  6  8  1  0
  8  9  1  6
  8 10  1  0
 10 11  1  6
 12 11  1  6
 12 13  1  0
 13 14  1  0
 14 15  1  1
 14 16  1  0
 16 17  1  0
 14 18  1  0
 18 19  1  6
 18 20  1  0
 20 21  1  1
 20 22  1  0
 22 23  1  6
 23 24  1  0
 10  2  1  0
 22 12  1  0
M  RAD  1  21   3
M  END
>  <docking_score>  (1) 
-4.4039999999999999

$$$$

     RDKit          3D

 24 25  0  0  0  0  0  0  0  0999 V2000
   16.2467   -7.4078   -5.3852 C   0  0  0  0  0  0  0  0  0  0  0  0
   17.5764   -7.5909   -4.7156 C   0  0  1  0  0  0  0  0  0  0  0  0
   18.5322   -8.4588   -5.4603 C   0  0  0  0  0  0  0  0  0  0  0  0
   19.4847   -7.7334   -6.3522 C   0  0  2  0  0  0  0  0  0  0  0  0
   20.5951   -8.5350   -6.6401 O   0  0  0  0  0  0  0  0  0  0  0  0
   20.0078   -6.4466   -5.7886 C   0  0  2  0  0  0  0  0  0  0  0  0
   20.8411   -6.6102   -4.6976 O   0  0  0  0  0  0  0  0  0  0  0  0
   18.8006   -5.6031   -5.3978 C   0  0  1  0  0  0  0  0  0  0  0  0
   17.8980   -5.7160   -6.4672 O   0  0  0  0  0  0  0  0  0  0  0  0
   18.1833   -6.3228   -4.2041 C   0  0  1  0  0  0  0  0  0  0  0  0
   16.9032   -5.2208   -3.5476 S   0  0  0  0  0  0  0  0  0  0  0  0
   17.0992   -3.6451   -4.4297 C   0  0  1  0  0  0  0  0  0  0  0  0
   15.9322   -3.3891   -5.3760 C   0  0  0  0  0  0  0  0  0  0  0  0
   15.9157   -1.8831   -5.6108 C   0  0  1  0  0  0  0  0  0  0  0  0
   17.2599   -1.4959   -5.7079 O   0  0  0  0  0  0  0  0  0  0  0  0
   15.2030   -1.5160   -6.8819 C   0  0  0  0  0  0  0  0  0  0  0  0
   15.1617   -2.6124   -7.7391 O   0  0  0  0  0  0  0  0  0  0  0  0
   15.2784   -1.2389   -4.3852 C   0  0  1  0  0  0  0  0  0  0  0  0
   13.9033   -1.4445   -4.4577 O   0  0  0  0  0  0  0  0  0  0  0  0
   15.7972   -2.0041   -3.1732 C   0  0  2  0  0  0  0  0  0  0  0  0
   15.7894   -1.1658   -1.9251 C   0  0  0  0  0  2  0  0  0  0  0  0
   17.1820   -2.4688   -3.5086 C   0  0  1  0  0  0  0  0  0  0  0  0
   17.9989   -2.6582   -2.4142 O   0  0  0  0  0  0  0  0  0  0  0  0
   19.5766   -2.1331   -2.8812 S   0  0  0  0  0  0  0  0  0  0  0  0
  2  1  1  6
  2  3  1  0
  3  4  1  0
  4  5  1  1
  4  6  1  0
  6  7  1  1
  6  8  1  0
  8  9  1  6
  8 10  1  0
 10 11  1  6
 12 11  1  1
 12 13  1  0
 13 14  1  0
 14 15  1  6
 14 16  1  0
 16 17  1  0
 14 18  1  0
 18 19  1  6
 18 20  1  0
 20 21  1  1
 20 22  1  0
 22 23  1  1
 23 24  1  0
 10  2  1  0
 22 12  1  0
M  RAD  1  21   3
M  END
>  <docking_score>  (2) 
-4.0880000000000001

$$$$

     RDKit          3D

 24 25  0  0  0  0  0  0  0  0999 V2000
   20.8671   -7.0739   -5.8911 C   0  0  0  0  0  0  0  0  0  0  0  0
   19.4892   -6.9451   -6.4698 C   0  0  1  0  0  0  0  0  0  0  0  0
   18.7841   -8.2399   -6.6881 C   0  0  0  0  0  0  0  0  0  0  0  0
   17.8868   -8.6688   -5.5744 C   0  0  2  0  0  0  0  0  0  0  0  0
   16.9525   -9.6057   -6.0300 O   0  0  0  0  0  0  0  0  0  0  0  0
   17.1142   -7.5554   -4.9338 C   0  0  2  0  0  0  0  0  0  0  0  0
   16.1562   -6.9923   -5.7565 O   0  0  0  0  0  0  0  0  0  0  0  0
   18.1222   -6.4946   -4.5092 C   0  0  1  0  0  0  0  0  0  0  0  0
   19.1825   -7.1969   -3.9145 O   0  0  0  0  0  0  0  0  0  0  0  0
   18.6449   -5.8999   -5.8120 C   0  0  1  0  0  0  0  0  0  0  0  0
   19.6489   -4.4630   -5.3525 S   0  0  0  0  0  0  0  0  0  0  0  0
   18.5861   -3.0107   -5.5987 C   0  0  1  0  0  0  0  0  0  0  0  0
   17.1101   -3.3833   -5.5252 C   0  0  0  0  0  0  0  0  0  0  0  0
   16.3755   -2.0900   -5.1918 C   0  0  1  0  0  0  0  0  0  0  0  0
   17.0182   -1.0840   -5.9273 O   0  0  0  0  0  0  0  0  0  0  0  0
   14.9270   -2.1431   -5.5887 C   0  0  0  0  0  0  0  0  0  0  0  0
   14.5874   -1.0000   -6.3076 O   0  0  0  0  0  0  0  0  0  0  0  0
   16.5559   -1.8364   -3.6997 C   0  0  1  0  0  0  0  0  0  0  0  0
   15.7110   -2.7026   -3.0112 O   0  0  0  0  0  0  0  0  0  0  0  0
   17.9909   -2.2256   -3.3636 C   0  0  2  0  0  0  0  0  0  0  0  0
   18.5134   -1.4889   -2.1615 C   0  0  0  0  0  2  0  0  0  0  0  0
   18.8185   -1.9398   -4.5799 C   0  0  1  0  0  0  0  0  0  0  0  0
   20.1472   -1.6828   -4.3160 O   0  0  0  0  0  0  0  0  0  0  0  0
   20.4718   -0.0988   -4.9230 S   0  0  0  0  0  0  0  0  0  0  0  0
  2  1  1  1
  2  3  1  0
  3  4  1  0
  4  5  1  6
  4  6  1  0
  6  7  1  6
  6  8  1  0
  8  9  1  6
  8 10  1  0
 10 11  1  1
 12 11  1  1
 12 13  1  0
 13 14  1  0
 14 15  1  6
 14 16  1  0
 16 17  1  0
 14 18  1  0
 18 19  1  1
 18 20  1  0
 20 21  1  1
 20 22  1  0
 22 23  1  1
 23 24  1  0
 10  2  1  0
 22 12  1  0
M  RAD  1  21   3
M  END
>  <docking_score>  (3) 
-3.9060000000000001

$$$$
