
     RDKit          3D

 14 13  0  0  0  0  0  0  0  0999 V2000
   16.4482   -1.9959   -2.3675 C   0  0  0  0  0  0  0  0  0  0  0  0
   17.3106   -3.1902   -1.9445 C   0  0  0  0  0  3  0  0  0  0  0  0
   16.4703   -4.4271   -2.1692 C   0  0  0  0  0  0  0  0  0  0  0  0
   17.0211   -5.3366   -3.2180 C   0  0  2  0  0  0  0  0  0  0  0  0
   18.1483   -4.8541   -3.8379 O   0  0  0  0  0  0  0  0  0  0  0  0
   15.9803   -5.6569   -4.2755 C   0  0  2  0  0  0  0  0  0  0  0  0
   16.2497   -6.9660   -4.7324 O   0  0  0  0  0  0  0  0  0  0  0  0
   16.1388   -4.7601   -5.4846 C   0  0  1  0  0  0  0  0  0  0  0  0
   16.4330   -5.5862   -6.5711 O   0  0  0  0  0  0  0  0  0  0  0  0
   14.8742   -3.9963   -5.8000 C   0  0  0  0  0  3  0  0  0  0  0  0
   15.2558   -2.5499   -5.9850 C   0  0  2  0  0  0  0  0  0  0  0  0
   14.2615   -1.7089   -5.2171 C   0  0  0  0  0  2  0  0  0  0  0  0
   15.3367   -2.1548   -7.4387 C   0  0  0  0  0  0  0  0  0  0  0  0
   16.6896   -2.1566   -7.7888 O   0  0  0  0  0  0  0  0  0  0  0  0
  1  2  1  0
  2  3  1  0
  3  4  1  0
  4  5  1  6
  4  6  1  0
  6  7  1  6
  6  8  1  0
  8  9  1  6
  8 10  1  0
 10 11  1  0
 11 12  1  1
 11 13  1  0
 13 14  1  0
M  RAD  3   2   2  10   2  12   3
M  END
>  <docking_score>  (1) 
-3.3300000000000001

$$$$

     RDKit          3D

 14 13  0  0  0  0  0  0  0  0999 V2000
   17.0578   -2.2880   -7.6945 C   0  0  0  0  0  0  0  0  0  0  0  0
   15.5491   -2.4990   -7.5262 C   0  0  0  0  0  3  0  0  0  0  0  0
   15.1800   -1.9068   -6.1848 C   0  0  0  0  0  0  0  0  0  0  0  0
   14.6178   -2.9069   -5.2287 C   0  0  2  0  0  0  0  0  0  0  0  0
   15.3792   -3.0876   -4.0994 O   0  0  0  0  0  0  0  0  0  0  0  0
   14.4061   -4.2535   -5.8967 C   0  0  2  0  0  0  0  0  0  0  0  0
   13.0391   -4.5754   -5.7460 O   0  0  0  0  0  0  0  0  0  0  0  0
   15.1662   -5.3451   -5.1743 C   0  0  1  0  0  0  0  0  0  0  0  0
   14.2866   -6.4171   -5.0111 O   0  0  0  0  0  0  0  0  0  0  0  0
   16.3603   -5.8288   -5.9630 C   0  0  0  0  0  3  0  0  0  0  0  0
   17.5967   -5.4304   -5.1984 C   0  0  2  0  0  0  0  0  0  0  0  0
   18.7984   -5.8619   -6.0079 C   0  0  0  0  0  2  0  0  0  0  0  0
   17.6176   -5.9938   -3.7992 C   0  0  0  0  0  0  0  0  0  0  0  0
   18.9136   -5.8184   -3.3065 O   0  0  0  0  0  0  0  0  0  0  0  0
  1  2  1  0
  2  3  1  0
  3  4  1  0
  4  5  1  1
  4  6  1  0
  6  7  1  1
  6  8  1  0
  8  9  1  6
  8 10  1  0
 10 11  1  0
 11 12  1  6
 11 13  1  0
 13 14  1  0
M  RAD  3   2   2  10   2  12   3
M  END
>  <docking_score>  (2) 
-3.2519999999999998

$$$$

     RDKit          3D

 14 13  0  0  0  0  0  0  0  0999 V2000
   19.1308   -7.7385   -3.8652 C   0  0  0  0  0  0  0  0  0  0  0  0
   18.1944   -6.6102   -4.3115 C   0  0  0  0  0  3  0  0  0  0  0  0
   17.8817   -6.8634   -5.7691 C   0  0  0  0  0  0  0  0  0  0  0  0
   16.4246   -6.7828   -6.0864 C   0  0  2  0  0  0  0  0  0  0  0  0
   16.1477   -6.1605   -7.2796 O   0  0  0  0  0  0  0  0  0  0  0  0
   15.6547   -6.0842   -4.9801 C   0  0  2  0  0  0  0  0  0  0  0  0
   14.5948   -6.9427   -4.6133 O   0  0  0  0  0  0  0  0  0  0  0  0
   14.9994   -4.8181   -5.4886 C   0  0  1  0  0  0  0  0  0  0  0  0
   13.6189   -5.0151   -5.4182 O   0  0  0  0  0  0  0  0  0  0  0  0
   15.3490   -3.6145   -4.6453 C   0  0  0  0  0  3  0  0  0  0  0  0
   14.6617   -2.4207   -5.2571 C   0  0  2  0  0  0  0  0  0  0  0  0
   15.4446   -2.0175   -6.4860 C   0  0  0  0  0  2  0  0  0  0  0  0
   14.5034   -1.2817   -4.2808 C   0  0  0  0  0  0  0  0  0  0  0  0
   15.3281   -1.5616   -3.1878 O   0  0  0  0  0  0  0  0  0  0  0  0
  1  2  1  0
  2  3  1  0
  3  4  1  0
  4  5  1  6
  4  6  1  0
  6  7  1  6
  6  8  1  0
  8  9  1  1
  8 10  1  0
 10 11  1  0
 11 12  1  6
 11 13  1  0
 13 14  1  0
M  RAD  3   2   2  10   2  12   3
M  END
>  <docking_score>  (3) 
-3.129

$$$$
