
     RDKit          3D

 26 26  0  0  0  0  0  0  0  0999 V2000
    9.7067   13.9142   13.8374 C   0  0  0  0  0  0  0  0  0  0  0  0
    8.4524   14.6747   13.5493 C   0  0  0  0  0  0  0  0  0  0  0  0
    7.4399   14.5584   14.6774 C   0  0  0  0  0  0  0  0  0  0  0  0
    7.8534   14.2954   12.2142 C   0  0  0  0  0  0  0  0  0  0  0  0
    7.4834   12.8475   12.1477 C   0  0  0  0  0  0  0  0  0  0  0  0
    6.2501   12.6604   11.3005 C   0  0  0  0  0  0  0  0  0  0  0  0
    5.7199   11.2799   11.5437 C   0  0  1  0  0  0  0  0  0  0  0  0
    5.7816   10.9312   12.9987 C   0  0  0  0  0  0  0  0  0  0  0  0
    4.3852   10.9852   10.9471 C   0  0  0  0  0  3  0  0  0  0  0  0
    4.4404   10.2391    9.6547 C   0  0  0  0  0  0  0  0  0  0  0  0
    4.2543   11.1286    8.4706 C   0  0  0  0  0  0  0  0  0  0  0  0
    3.9400   10.3881    7.2179 C   0  0  2  0  0  0  0  0  0  0  0  0
    3.5502    8.9589    7.4083 C   0  0  0  0  0  0  0  0  0  0  0  0
    5.0849   10.4893    6.2134 C   0  0  1  0  0  0  0  0  0  0  0  0
    4.8929    9.4884    5.1136 C   0  0  0  0  0  0  0  0  0  0  0  0
    6.0089    9.6461    4.1047 C   0  0  1  0  0  0  0  0  0  0  0  0
    5.4200    9.7488    2.7226 C   0  0  0  0  0  2  0  0  0  0  0  0
    6.9275   10.7755    4.4444 C   0  0  0  0  0  0  0  0  0  0  0  0
    7.4994   11.4839    3.2592 C   0  0  0  0  0  3  0  0  0  0  0  0
    6.3904   12.0514    2.4324 C   0  0  2  0  0  0  0  0  0  0  0  0
    6.7891   12.3086    1.1337 O   0  0  0  0  0  0  0  0  0  0  0  0
    5.7153   13.2221    3.0910 C   0  0  0  0  0  0  0  0  0  0  0  0
    4.3683   12.8718    3.6019 C   0  0  0  0  0  0  0  0  0  0  0  0
    4.1559   12.2876    4.7660 C   0  0  0  0  0  0  0  0  0  0  0  0
    2.8389   12.0159    5.1206 O   0  0  0  0  0  0  0  0  0  0  0  0
    5.2150   11.9041    5.7142 C   0  0  0  0  0  0  0  0  0  0  0  0
  1  2  1  0
  2  3  1  0
  2  4  1  0
  4  5  1  0
  5  6  1  0
  6  7  1  0
  7  8  1  1
  7  9  1  0
  9 10  1  0
 10 11  1  0
 11 12  1  0
 12 13  1  1
 12 14  1  0
 14 15  1  6
 15 16  1  0
 16 17  1  6
 16 18  1  0
 18 19  1  0
 19 20  1  0
 20 21  1  6
 20 22  1  0
 22 23  1  0
 23 24  2  3
 24 25  1  0
 24 26  1  0
 26 14  1  0
M  RAD  3   9   2  17   3  19   2
M  END
>  <docking_score>  (1) 
-3.823

$$$$

     RDKit          3D

 26 26  0  0  0  0  0  0  0  0999 V2000
    3.8300    9.4569   13.4044 C   0  0  0  0  0  0  0  0  0  0  0  0
    4.2532   10.1515   12.1503 C   0  0  0  0  0  0  0  0  0  0  0  0
    5.6581    9.7575   11.7234 C   0  0  0  0  0  0  0  0  0  0  0  0
    4.0958   11.6514   12.2521 C   0  0  0  0  0  0  0  0  0  0  0  0
    5.3860   12.3751   12.0296 C   0  0  0  0  0  0  0  0  0  0  0  0
    5.1856   13.5196   11.0685 C   0  0  0  0  0  0  0  0  0  0  0  0
    4.2704   13.0581    9.9752 C   0  0  1  0  0  0  0  0  0  0  0  0
    3.3789   14.1708    9.5174 C   0  0  0  0  0  0  0  0  0  0  0  0
    4.9271   12.3540    8.8361 C   0  0  0  0  0  3  0  0  0  0  0  0
    4.2723   11.0693    8.4474 C   0  0  0  0  0  0  0  0  0  0  0  0
    3.5745   11.1567    7.1308 C   0  0  0  0  0  0  0  0  0  0  0  0
    4.1908   10.3045    6.0770 C   0  0  2  0  0  0  0  0  0  0  0  0
    4.4645    8.8937    6.4836 C   0  0  0  0  0  0  0  0  0  0  0  0
    5.4597   10.9445    5.5200 C   0  0  1  0  0  0  0  0  0  0  0  0
    5.9511   10.1651    4.3371 C   0  0  0  0  0  0  0  0  0  0  0  0
    7.1756   10.8497    3.7713 C   0  0  1  0  0  0  0  0  0  0  0  0
    7.0032   11.0313    2.2864 C   0  0  0  0  0  2  0  0  0  0  0  0
    7.5015   12.1188    4.4911 C   0  0  0  0  0  0  0  0  0  0  0  0
    8.0960   13.1834    3.6269 C   0  0  0  0  0  3  0  0  0  0  0  0
    7.1391   13.5311    2.5319 C   0  0  2  0  0  0  0  0  0  0  0  0
    7.7701   14.1440    1.4651 O   0  0  0  0  0  0  0  0  0  0  0  0
    5.9384   14.2875    3.0280 C   0  0  0  0  0  0  0  0  0  0  0  0
    4.7160   13.4486    3.0329 C   0  0  0  0  0  0  0  0  0  0  0  0
    4.4044   12.6143    4.0067 C   0  0  0  0  0  0  0  0  0  0  0  0
    3.2251   11.8880    3.8814 O   0  0  0  0  0  0  0  0  0  0  0  0
    5.2177   12.3992    5.2152 C   0  0  0  0  0  0  0  0  0  0  0  0
  1  2  1  0
  2  3  1  0
  2  4  1  0
  4  5  1  0
  5  6  1  0
  6  7  1  0
  7  8  1  6
  7  9  1  0
  9 10  1  0
 10 11  1  0
 11 12  1  0
 12 13  1  1
 12 14  1  0
 14 15  1  6
 15 16  1  0
 16 17  1  6
 16 18  1  0
 18 19  1  0
 19 20  1  0
 20 21  1  6
 20 22  1  0
 22 23  1  0
 23 24  2  3
 24 25  1  0
 24 26  1  0
 26 14  1  0
M  RAD  3   9   2  17   3  19   2
M  END
>  <docking_score>  (2) 
-3.411

$$$$

     RDKit          3D

 26 26  0  0  0  0  0  0  0  0999 V2000
   18.5669   -8.3977   -8.2111 C   0  0  0  0  0  0  0  0  0  0  0  0
   17.5992   -7.9766   -7.1525 C   0  0  0  0  0  0  0  0  0  0  0  0
   17.5807   -6.4687   -6.9600 C   0  0  0  0  0  0  0  0  0  0  0  0
   17.8307   -8.7074   -5.8496 C   0  0  0  0  0  0  0  0  0  0  0  0
   18.0697   -7.7716   -4.7073 C   0  0  0  0  0  0  0  0  0  0  0  0
   19.4341   -8.0103   -4.1113 C   0  0  0  0  0  0  0  0  0  0  0  0
   20.0143   -6.6839   -3.7238 C   0  0  1  0  0  0  0  0  0  0  0  0
   20.7408   -6.0601   -4.8751 C   0  0  0  0  0  0  0  0  0  0  0  0
   19.0719   -5.7327   -3.0669 C   0  0  0  0  0  3  0  0  0  0  0  0
   19.7364   -4.5911   -2.3702 C   0  0  0  0  0  0  0  0  0  0  0  0
   19.6647   -3.3219   -3.1523 C   0  0  0  0  0  0  0  0  0  0  0  0
   18.4145   -2.5497   -2.9135 C   0  0  2  0  0  0  0  0  0  0  0  0
   17.9429   -2.5311   -1.4965 C   0  0  0  0  0  0  0  0  0  0  0  0
   17.2904   -3.0186   -3.8335 C   0  0  1  0  0  0  0  0  0  0  0  0
   16.1308   -2.0717   -3.7510 C   0  0  0  0  0  0  0  0  0  0  0  0
   15.0543   -2.5276   -4.7110 C   0  0  1  0  0  0  0  0  0  0  0  0
   14.6236   -1.3645   -5.5652 C   0  0  0  0  0  2  0  0  0  0  0  0
   15.4690   -3.7253   -5.5037 C   0  0  0  0  0  0  0  0  0  0  0  0
   14.9176   -3.7678   -6.8921 C   0  0  0  0  0  3  0  0  0  0  0  0
   15.3720   -2.5604   -7.6479 C   0  0  2  0  0  0  0  0  0  0  0  0
   14.5660   -2.2967   -8.7400 O   0  0  0  0  0  0  0  0  0  0  0  0
   16.8364   -2.6031   -7.9851 C   0  0  0  0  0  0  0  0  0  0  0  0
   17.6252   -1.6592   -7.1575 C   0  0  0  0  0  0  0  0  0  0  0  0
   18.0521   -1.9340   -5.9395 C   0  0  0  0  0  0  0  0  0  0  0  0
   18.7829   -0.9544   -5.2758 O   0  0  0  0  0  0  0  0  0  0  0  0
   17.8088   -3.2039   -5.2351 C   0  0  0  0  0  0  0  0  0  0  0  0
  1  2  1  0
  2  3  1  0
  2  4  1  0
  4  5  1  0
  5  6  1  0
  6  7  1  0
  7  8  1  6
  7  9  1  0
  9 10  1  0
 10 11  1  0
 11 12  1  0
 12 13  1  1
 12 14  1  0
 14 15  1  6
 15 16  1  0
 16 17  1  6
 16 18  1  0
 18 19  1  0
 19 20  1  0
 20 21  1  6
 20 22  1  0
 22 23  1  0
 23 24  2  3
 24 25  1  0
 24 26  1  0
 26 14  1  0
M  RAD  3   9   2  17   3  19   2
M  END
>  <docking_score>  (3) 
-1.6040000000000001

$$$$
