
     RDKit          3D

 25 27  0  0  0  0  0  0  0  0999 V2000
   16.7908  -10.0707   -5.4552 C   0  0  0  0  0  0  0  0  0  0  0  0
   17.1117   -8.6855   -5.3601 O   0  0  0  0  0  0  0  0  0  0  0  0
   18.2967   -8.2191   -5.9094 C   0  0  0  0  0  0  0  0  0  0  0  0
   19.0464   -7.3000   -5.3441 C   0  0  0  0  0  0  0  0  0  0  0  0
   18.5940   -6.7522   -4.0726 C   0  0  0  0  0  0  0  0  0  0  0  0
   18.1650   -5.5121   -3.9363 C   0  0  0  0  0  0  0  0  0  0  0  0
   17.7380   -5.0995   -2.5814 C   0  0  0  0  0  0  0  0  0  0  0  0
   18.5882   -3.9483   -2.0635 C   0  0  1  0  0  0  0  0  0  0  0  0
   20.0274   -4.3463   -1.9213 C   0  0  0  0  0  0  0  0  0  0  0  0
   18.4301   -2.7193   -2.9033 C   0  0  0  0  0  3  0  0  0  0  0  0
   17.5308   -1.7004   -2.3038 C   0  0  0  0  0  0  0  0  0  0  0  0
   16.2345   -1.6108   -2.5756 C   0  0  0  0  0  0  0  0  0  0  0  0
   15.5001   -2.5055   -3.5081 C   0  0  2  0  0  0  0  0  0  0  0  0
   16.3420   -3.6552   -3.8542 C   0  0  0  0  0  0  0  0  0  0  0  0
   16.9669   -3.7108   -5.1836 C   0  0  1  0  0  0  0  0  0  0  0  0
   18.1487   -4.6578   -5.1293 C   0  0  1  0  0  0  0  0  0  0  0  0
   19.4372   -3.9363   -5.3222 C   0  0  0  0  0  0  0  0  0  0  0  0
   19.5698   -3.3113   -6.6690 C   0  0  0  0  0  3  0  0  0  0  0  0
   19.1529   -4.1768   -7.8057 C   0  0  0  0  0  0  0  0  0  0  0  0
   17.7489   -4.0809   -8.1260 N   0  0  0  0  0  0  0  0  0  0  0  0
   16.9153   -4.9003   -7.3106 C   0  0  0  0  0  0  0  0  0  0  0  0
   16.0976   -4.1721   -6.3025 C   0  0  2  0  0  0  0  0  0  0  0  0
   15.2898   -3.1881   -6.8374 O   0  0  0  0  0  0  0  0  0  0  0  0
   15.6083   -1.9164   -6.3776 C   0  0  0  0  0  3  0  0  0  0  0  0
   14.7420   -1.6069   -4.8434 S   0  0  0  0  0  0  0  0  0  0  0  0
  1  2  1  0
  2  3  1  0
  3  4  2  3
  4  5  1  0
  5  6  2  3
  6  7  1  0
  7  8  1  0
  8  9  1  6
  8 10  1  0
 10 11  1  0
 11 12  2  3
 12 13  1  0
 13 14  1  0
 15 14  1  1
  6 16  1  0
 16 17  1  1
 17 18  1  0
 18 19  1  0
 19 20  1  0
 20 21  1  0
 22 21  1  6
 22 23  1  0
 23 24  1  0
 24 25  1  0
 13 25  1  6
 16 15  1  0
 22 15  1  0
M  RAD  3  10   2  18   2  24   2
M  END
>  <docking_score>  (1) 
-5.867

$$$$

     RDKit          3D

 25 27  0  0  0  0  0  0  0  0999 V2000
   21.0237   -3.3551   -2.3337 C   0  0  0  0  0  0  0  0  0  0  0  0
   19.7642   -2.7765   -2.0027 O   0  0  0  0  0  0  0  0  0  0  0  0
   18.7154   -3.5975   -1.6158 C   0  0  0  0  0  0  0  0  0  0  0  0
   17.4860   -3.4618   -2.0591 C   0  0  0  0  0  0  0  0  0  0  0  0
   17.2281   -2.3866   -3.0072 C   0  0  0  0  0  0  0  0  0  0  0  0
   17.0648   -2.5923   -4.3000 C   0  0  0  0  0  0  0  0  0  0  0  0
   16.8096   -1.4000   -5.1378 C   0  0  0  0  0  0  0  0  0  0  0  0
   17.9020   -1.2172   -6.1816 C   0  0  1  0  0  0  0  0  0  0  0  0
   19.2382   -0.9753   -5.5446 C   0  0  0  0  0  0  0  0  0  0  0  0
   17.9438   -2.3597   -7.1478 C   0  0  0  0  0  3  0  0  0  0  0  0
   17.3036   -2.0584   -8.4539 C   0  0  0  0  0  0  0  0  0  0  0  0
   16.0377   -2.3414   -8.7364 C   0  0  0  0  0  0  0  0  0  0  0  0
   15.0854   -2.9933   -7.7995 C   0  0  2  0  0  0  0  0  0  0  0  0
   15.6584   -3.0150   -6.4498 C   0  0  0  0  0  0  0  0  0  0  0  0
   16.1800   -4.2804   -5.9135 C   0  0  1  0  0  0  0  0  0  0  0  0
   17.1495   -3.9729   -4.7902 C   0  0  1  0  0  0  0  0  0  0  0  0
   18.5427   -4.3579   -5.1490 C   0  0  0  0  0  0  0  0  0  0  0  0
   18.7181   -5.8242   -5.3514 C   0  0  0  0  0  3  0  0  0  0  0  0
   18.0700   -6.6813   -4.3216 C   0  0  0  0  0  0  0  0  0  0  0  0
   16.6973   -7.0124   -4.6195 N   0  0  0  0  0  0  0  0  0  0  0  0
   15.7661   -6.0028   -4.2391 C   0  0  0  0  0  0  0  0  0  0  0  0
   15.1716   -5.2294   -5.3632 C   0  0  2  0  0  0  0  0  0  0  0  0
   14.5469   -6.0103   -6.3155 O   0  0  0  0  0  0  0  0  0  0  0  0
   15.1400   -5.9150   -7.5682 C   0  0  0  0  0  3  0  0  0  0  0  0
   14.4452   -4.5211   -8.4483 S   0  0  0  0  0  0  0  0  0  0  0  0
  1  2  1  0
  2  3  1  0
  3  4  2  3
  4  5  1  0
  5  6  2  3
  6  7  1  0
  7  8  1  0
  8  9  1  1
  8 10  1  0
 10 11  1  0
 11 12  2  3
 12 13  1  0
 13 14  1  0
 15 14  1  1
  6 16  1  0
 16 17  1  6
 17 18  1  0
 18 19  1  0
 19 20  1  0
 20 21  1  0
 22 21  1  1
 22 23  1  0
 23 24  1  0
 24 25  1  0
 13 25  1  6
 16 15  1  0
 22 15  1  0
M  RAD  3  10   2  18   2  24   2
M  END
>  <docking_score>  (2) 
-5.6779999999999999

$$$$
