
     RDKit          3D

 11 11  0  0  0  0  0  0  0  0999 V2000
    7.0926    2.0065   28.7863 O   0  0  0  0  0  0  0  0  0  0  0  0
    6.5950    2.3328   27.6932 C   0  0  0  0  0  0  0  0  0  0  0  0
    6.9256    1.5252   26.5073 C   0  0  0  0  0  0  0  0  0  0  0  0
    6.3435    0.3298   26.4314 C   0  0  0  0  0  0  0  0  0  0  0  0
    6.4858   -0.6722   25.3798 C   0  0  0  0  0  0  0  0  0  0  0  0
    5.8154   -1.7376   25.4795 O   0  0  0  0  0  0  0  0  0  0  0  0
    7.3483   -0.5874   24.1730 C   0  0  0  0  0  0  0  0  0  0  0  0
    7.2918    0.7778   23.5284 C   0  0  2  0  0  0  0  0  0  0  0  0
    8.0941    0.6817   22.2326 C   0  0  0  0  0  0  0  0  0  0  0  0
    7.9357    1.7536   24.3551 N   0  0  0  0  0  0  0  0  0  0  0  0
    7.8285    2.1014   25.5683 N   0  0  0  0  0  0  0  0  0  0  0  0
  1  2  2  0
  2  3  1  0
  3  4  2  0
  4  5  1  0
  5  6  2  0
  5  7  1  0
  7  8  1  0
  8  9  1  6
  8 10  1  0
 10 11  2  0
 11  3  1  0
M  END
>  <docking_score>  (1) 
-4.7779999999999996

$$$$

     RDKit          3D

 11 11  0  0  0  0  0  0  0  0999 V2000
    7.9163   -0.6798   21.1444 O   0  0  0  0  0  0  0  0  0  0  0  0
    8.4557   -0.1253   22.1193 C   0  0  0  0  0  0  0  0  0  0  0  0
    7.6743    0.0225   23.3584 C   0  0  0  0  0  0  0  0  0  0  0  0
    7.3254   -1.1082   23.9695 C   0  0  0  0  0  0  0  0  0  0  0  0
    6.5578   -1.2620   25.2013 C   0  0  0  0  0  0  0  0  0  0  0  0
    6.3610   -2.4309   25.6368 O   0  0  0  0  0  0  0  0  0  0  0  0
    5.9635   -0.1795   26.0272 C   0  0  0  0  0  0  0  0  0  0  0  0
    6.9042    0.9910   26.1931 C   0  0  2  0  0  0  0  0  0  0  0  0
    6.2360    1.9519   27.1739 C   0  0  0  0  0  0  0  0  0  0  0  0
    7.0627    1.6910   24.9541 N   0  0  0  0  0  0  0  0  0  0  0  0
    7.3732    1.3512   23.7741 N   0  0  0  0  0  0  0  0  0  0  0  0
  1  2  2  0
  2  3  1  0
  3  4  2  0
  4  5  1  0
  5  6  2  0
  5  7  1  0
  7  8  1  0
  8  9  1  1
  8 10  1  0
 10 11  2  0
 11  3  1  0
M  END
>  <docking_score>  (2) 
-4.6459999999999999

$$$$

     RDKit          3D

 11 11  0  0  0  0  0  0  0  0999 V2000
    8.3885   -3.5717   23.4169 O   0  0  0  0  0  0  0  0  0  0  0  0
    7.8971   -2.6193   22.7841 C   0  0  0  0  0  0  0  0  0  0  0  0
    7.6617   -1.3539   23.4990 C   0  0  0  0  0  0  0  0  0  0  0  0
    8.1060   -0.2508   22.8997 C   0  0  0  0  0  0  0  0  0  0  0  0
    8.0121    1.1269   23.3724 C   0  0  0  0  0  0  0  0  0  0  0  0
    8.4702    2.0417   22.6322 O   0  0  0  0  0  0  0  0  0  0  0  0
    7.4265    1.5955   24.6548 C   0  0  0  0  0  0  0  0  0  0  0  0
    6.1315    0.8888   24.9807 C   0  0  2  0  0  0  0  0  0  0  0  0
    5.5685    1.5639   26.2294 C   0  0  0  0  0  0  0  0  0  0  0  0
    6.3744   -0.4828   25.3124 N   0  0  0  0  0  0  0  0  0  0  0  0
    6.9873   -1.4384   24.7508 N   0  0  0  0  0  0  0  0  0  0  0  0
  1  2  2  0
  2  3  1  0
  3  4  2  0
  4  5  1  0
  5  6  2  0
  5  7  1  0
  7  8  1  0
  8  9  1  1
  8 10  1  0
 10 11  2  0
 11  3  1  0
M  END
>  <docking_score>  (3) 
-4.319

$$$$
