
     RDKit          3D

 80 82  0  0  0  0  0  0  0  0999 V2000
   14.6722   -7.3413   -5.4743 C   0  0  2  0  0  0  0  0  0  0  0  0
   14.3379   -8.2935   -4.3504 C   0  0  1  0  0  0  0  0  0  0  0  0
   12.9859   -7.9244   -3.7948 C   0  0  0  0  0  0  0  0  0  0  0  0
   14.3344   -9.7092   -4.8972 C   0  0  0  0  0  0  0  0  0  0  0  0
   13.8826   -9.7588   -6.3284 C   0  0  0  0  0  0  0  0  0  0  0  0
   14.3330  -10.9964   -7.0374 C   0  0  0  0  0  0  0  0  0  0  0  0
   13.1182  -11.8503   -7.3085 C   0  0  1  0  0  0  0  0  0  0  0  0
   13.5085  -13.1362   -7.9687 C   0  0  0  0  0  0  0  0  0  0  0  0
   12.3380  -12.1557   -6.0582 C   0  0  0  0  0  3  0  0  0  0  0  0
   11.6857  -10.9203   -5.4952 C   0  0  0  0  0  0  0  0  0  0  0  0
   10.1932  -10.9131   -5.6520 C   0  0  2  0  0  0  0  0  0  0  0  0
    9.6217  -12.2228   -6.0770 C   0  0  0  0  0  3  0  0  0  0  0  0
   10.1756  -12.7354   -7.3823 C   0  0  0  0  0  0  0  0  0  0  0  0
    9.7909  -13.2040   -4.9415 C   0  0  0  0  0  3  0  0  0  0  0  0
    9.5361  -12.4297   -3.6483 C   0  0  0  0  0  0  0  0  0  0  0  0
    8.0305  -12.2528   -3.5528 C   0  0  1  0  0  0  0  0  0  0  0  0
    7.5555  -13.1639   -2.4312 C   0  0  0  0  0  0  0  0  0  0  0  0
    7.6721  -10.8105   -3.3028 C   0  0  0  0  0  0  0  0  0  0  0  0
    6.3301  -10.4269   -3.8553 C   0  0  0  0  0  0  0  0  0  0  0  0
    6.3559  -10.3277   -5.3798 C   0  0  2  0  0  0  0  0  0  0  0  0
    5.2427  -11.0750   -5.8268 O   0  0  0  0  0  0  0  0  0  0  0  0
    7.6264  -10.9313   -5.9090 C   0  0  0  0  0  0  0  0  0  0  0  0
    8.2972  -10.0636   -6.9530 C   0  0  0  0  0  0  0  0  0  0  0  0
    9.6876   -9.7470   -6.4707 C   0  0  1  0  0  0  0  0  0  0  0  0
    9.5742   -8.5641   -5.5238 C   0  0  0  0  0  0  0  0  0  0  0  0
   10.6109   -9.3589   -7.5874 C   0  0  0  0  0  0  0  0  0  0  0  0
   11.0982   -7.6018   -7.4527 S   0  0  0  0  0  0  0  0  0  0  0  0
   12.2599   -7.3703   -6.0800 C   0  0  0  0  0  0  0  0  0  0  0  0
   13.6795   -7.3771   -6.5942 C   0  0  1  0  0  0  0  0  0  0  0  0
   13.9048   -6.1361   -7.4632 C   0  0  0  0  0  2  0  0  0  0  0  0
   12.9785   -5.0374   -6.9516 C   0  0  0  0  0  0  0  0  0  0  0  0
   13.2003   -4.9280   -5.4576 C   0  0  2  0  0  0  0  0  0  0  0  0
   11.9047   -4.6408   -4.7238 C   0  0  0  0  0  0  0  0  0  0  0  0
   14.1220   -3.7424   -5.2343 C   0  0  0  0  0  0  0  0  0  0  0  0
   13.2696   -2.4849   -5.3881 C   0  0  0  0  0  0  0  0  0  0  0  0
   12.0464   -2.7336   -6.2077 C   0  0  0  0  0  0  0  0  0  0  0  0
   12.8673   -2.0792   -3.9706 C   0  0  0  0  0  0  0  0  0  0  0  0
   14.1228   -1.3952   -6.0310 C   0  0  0  0  0  0  0  0  0  0  0  0
   13.2711   -0.1732   -6.1831 C   0  0  0  0  0  0  0  0  0  0  0  0
   13.6266    0.8238   -5.1163 C   0  0  2  0  0  0  0  0  0  0  0  0
   12.7685    1.9062   -5.1233 O   0  0  0  0  0  0  0  0  0  0  0  0
   15.0724    1.1942   -5.2171 C   0  0  1  0  0  0  0  0  0  0  0  0
   15.3840    1.4866   -6.6768 C   0  0  0  0  0  0  0  0  0  0  0  0
   15.3632    2.3802   -4.3564 C   0  0  2  0  0  0  0  0  0  0  0  0
   14.0865    2.8375   -3.6884 C   0  0  0  0  0  0  0  0  0  0  0  0
   15.9064    3.4988   -5.1860 C   0  0  0  0  0  0  0  0  0  0  0  0
   16.0623    4.7612   -4.3922 C   0  0  0  0  0  0  0  0  0  0  0  0
   17.4650    5.0670   -4.0508 C   0  0  0  0  0  0  0  0  0  0  0  0
   17.9064    5.0865   -2.6271 C   0  0  0  0  0  0  0  0  0  0  0  0
   18.3591    5.3277   -4.9685 C   0  0  0  0  0  0  0  0  0  0  0  0
   17.9993    5.3279   -6.4012 C   0  0  0  0  0  0  0  0  0  0  0  0
   18.4070    6.6513   -7.0122 C   0  0  0  0  0  2  0  0  0  0  0  0
   19.6712    7.1547   -6.3242 C   0  0  0  0  0  2  0  0  0  0  0  0
   19.2044    7.8123   -4.7048 S   0  0  0  0  0  0  0  0  0  0  0  0
   20.2875    7.1853   -3.3941 C   0  0  0  0  0  0  0  0  0  0  0  0
   21.2753    6.1759   -3.9088 C   0  0  0  0  0  0  0  0  0  0  0  0
   15.9090   -0.0012   -4.7840 C   0  0  0  0  0  0  0  0  0  0  0  0
   17.3764    0.3036   -4.7268 C   0  0  2  0  0  0  0  0  0  0  0  0
   17.6693    1.5840   -4.0004 C   0  0  0  0  0  0  0  0  0  0  0  0
   17.9477    0.3074   -6.1178 C   0  0  0  0  0  0  0  0  0  0  0  0
   19.0606    1.3472   -6.1534 C   0  0  0  0  0  0  0  0  0  0  0  0
   20.2750    0.7983   -6.8425 C   0  0  1  0  0  0  0  0  0  0  0  0
   21.2313    1.9743   -7.0701 C   0  0  0  0  0  0  0  0  0  0  0  0
   20.9630   -0.2025   -5.9370 C   0  0  0  0  0  3  0  0  0  0  0  0
   19.9678   -1.1053   -5.2749 C   0  0  0  0  0  0  0  0  0  0  0  0
   20.2691   -2.5635   -5.4661 C   0  0  0  0  0  0  0  0  0  0  0  0
   20.9114   -3.0894   -4.1999 C   0  0  0  0  0  2  0  0  0  0  0  0
   19.6949   -3.9490   -3.1836 S   0  0  0  0  0  0  0  0  0  0  0  0
   20.0158   -5.6493   -3.1875 O   0  0  0  0  0  0  0  0  0  0  0  0
   19.7793   -6.1935   -4.4411 C   0  0  0  0  0  0  0  0  0  0  0  0
   18.2976   -6.4550   -4.6794 C   0  0  0  0  0  3  0  0  0  0  0  0
   17.7580   -5.5070   -5.7337 C   0  0  0  0  0  0  0  0  0  0  0  0
   17.7786   -6.1710   -7.0972 C   0  0  0  0  0  0  0  0  0  0  0  0
   16.4319   -6.6988   -7.5076 C   0  0  0  0  0  2  0  0  0  0  0  0
   16.1681   -8.1770   -6.2471 S   0  0  1  0  0  0  0  0  0  0  0  0
   17.2580   -8.9729   -5.7932 C   0  0  0  0  0  0  0  0  0  0  0  0
   17.8164  -10.3062   -6.1215 C   0  0  0  0  0  2  0  0  0  0  0  0
   19.2476  -10.2448   -7.2232 S   0  0  0  0  0  0  0  0  0  0  0  0
   19.6887   -8.4968   -7.4455 C   0  0  0  0  0  3  0  0  0  0  0  0
   20.7076   -8.3040   -8.5296 C   0  0  0  0  0  0  0  0  0  0  0  0
  1  2  1  1
  2  3  1  6
  2  4  1  0
  4  5  1  0
  5  6  1  0
  6  7  1  0
  7  8  1  1
  7  9  1  0
  9 10  1  0
 11 10  1  6
 11 12  1  0
 12 13  1  0
 12 14  1  0
 14 15  1  0
 15 16  1  0
 16 17  1  1
 16 18  1  0
 18 19  1  0
 19 20  1  0
 20 21  1  6
 20 22  1  0
 22 23  1  0
 23 24  1  0
 24 25  1  1
 24 26  1  0
 26 27  1  0
 27 28  1  0
 29 28  1  1
 29 30  1  0
 30 31  1  0
 31 32  1  0
 32 33  1  1
 32 34  1  0
 34 35  1  0
 35 36  1  0
 35 37  1  0
 35 38  1  0
 38 39  1  0
 39 40  1  0
 40 41  1  6
 40 42  1  0
 42 43  1  6
 42 44  1  0
 44 45  1  6
 44 46  1  0
 46 47  1  0
 47 48  1  0
 48 49  1  0
 48 50  2  3
 50 51  1  0
 51 52  1  0
 52 53  1  0
 53 54  1  0
 54 55  1  0
 55 56  1  0
 42 57  1  0
 57 58  1  0
 58 59  1  6
 58 60  1  0
 60 61  1  0
 61 62  1  0
 62 63  1  1
 62 64  1  0
 64 65  1  0
 65 66  1  0
 66 67  1  0
 67 68  1  0
 68 69  1  0
 69 70  1  0
 70 71  1  0
 71 72  1  0
 72 73  1  0
 73 74  1  0
 74 75  1  0
 75 76  1  1
 76 77  1  0
 77 78  1  0
 78 79  1  0
 79 80  1  0
 29  1  1  0
 75  1  1  0
 24 11  1  0
M  RAD  8   9   2  12   2  14   2  30   3  52   3  53   3  64   2  67   3
M  RAD  4  71   2  74   3  77   3  79   2
M  END
>  <docking_score>  (1) 
186.614

$$$$
