
     RDKit          3D

 46 48  0  0  0  0  0  0  0  0999 V2000
   19.2356   -4.5254   -4.8519 C   0  0  1  0  0  0  0  0  0  0  0  0
   18.1962   -5.2670   -4.3366 O   0  0  0  0  0  0  0  0  0  0  0  0
   17.6415   -6.1440   -5.2680 C   0  0  1  0  0  0  0  0  0  0  0  0
   17.8674   -7.4830   -4.7981 O   0  0  0  0  0  0  0  0  0  0  0  0
   17.4046   -8.3224   -5.8199 C   0  0  2  0  0  0  0  0  0  0  0  0
   17.1259   -9.7127   -5.2859 C   0  0  0  0  0  0  0  0  0  0  0  0
   18.4950   -8.3427   -6.8673 C   0  0  0  0  0  3  0  0  0  0  0  0
   18.1329   -7.5566   -8.0973 C   0  0  1  0  0  0  0  0  0  0  0  0
   16.7170   -7.3440   -8.2433 N   0  0  0  0  0  0  0  0  0  0  0  0
   16.3038   -6.1258   -7.6102 C   0  0  0  0  0  3  0  0  0  0  0  0
   15.5662   -6.3611   -6.3203 C   0  0  0  0  0  3  0  0  0  0  0  0
   14.2861   -5.5424   -6.3824 C   0  0  0  0  0  0  0  0  0  0  0  0
   16.2631   -6.0150   -5.2099 O   0  0  0  0  0  0  0  0  0  0  0  0
   18.9520   -6.3107   -8.2719 C   0  0  0  0  0  3  0  0  0  0  0  0
   18.3596   -5.1739   -7.7543 O   0  0  0  0  0  0  0  0  0  0  0  0
   19.2532   -4.2353   -7.2833 C   0  0  2  0  0  0  0  0  0  0  0  0
   20.5071   -4.8292   -7.2043 O   0  0  0  0  0  0  0  0  0  0  0  0
   18.8755   -3.6200   -5.9741 C   0  0  1  0  0  0  0  0  0  0  0  0
   17.4583   -3.1155   -5.9533 C   0  0  2  0  0  0  0  0  0  0  0  0
   17.4110   -1.9024   -6.8866 C   0  0  0  0  0  2  0  0  0  0  0  0
   16.8924   -2.8050   -4.6235 C   0  0  2  0  0  0  0  0  0  0  0  0
   15.7809   -3.6190   -4.3521 O   0  0  0  0  0  0  0  0  0  0  0  0
   16.3112   -1.3718   -4.5549 C   0  0  0  0  0  3  0  0  0  0  0  0
   15.4292   -1.3777   -3.4719 O   0  0  0  0  0  0  0  0  0  0  0  0
   15.7321   -2.3385   -2.5010 C   0  0  0  0  0  3  0  0  0  0  0  0
   16.8834   -1.9837   -1.4832 S   0  0  2  0  0  0  0  0  0  0  0  0
   16.0736   -2.0213    0.4213 O   0  0  0  0  0  0  0  0  0  0  0  0
   17.9708   -1.0131   -1.5952 C   0  0  0  0  0  3  0  0  0  0  0  0
   19.3385   -1.2236   -1.6294 O   0  0  0  0  0  0  0  0  0  0  0  0
   19.7393   -1.7726   -2.8425 C   0  0  2  0  0  0  0  0  0  0  0  0
   19.3658   -0.9096   -3.9804 C   0  0  0  0  0  2  0  0  0  0  0  0
   20.3101    0.3270   -4.0962 C   0  0  0  0  0  3  0  0  0  0  0  0
   19.6578    1.2100   -5.1618 C   0  0  0  0  0  3  0  0  0  0  0  0
   20.4625    1.1087   -6.3092 O   0  0  0  0  0  0  0  0  0  0  0  0
   21.3421    2.1188   -6.3605 O   0  0  0  0  0  0  0  0  0  0  0  0
   20.9215    3.1061   -5.5230 C   0  0  0  0  0  3  0  0  0  0  0  0
   21.3825    4.3214   -5.6020 O   0  0  0  0  0  0  0  0  0  0  0  0
   20.5646    5.3293   -5.0411 C   0  0  2  0  0  0  0  0  0  0  0  0
   20.4152    4.9406   -3.5327 C   0  0  0  0  0  2  0  0  0  0  0  0
   19.1375    5.3271   -5.5987 C   0  0  0  0  0  3  0  0  0  0  0  0
   18.8619    6.4964   -6.2509 O   0  0  0  0  0  0  0  0  0  0  0  0
   17.5487    6.8814   -6.1585 C   0  0  0  0  0  3  0  0  0  0  0  0
   16.6908    5.8386   -5.8041 O   0  0  0  0  0  0  0  0  0  0  0  0
   19.2617   -3.2026   -2.9483 C   0  0  2  0  0  0  0  0  0  0  0  0
   19.4617   -3.8325   -1.5724 C   0  0  0  0  0  2  0  0  0  0  0  0
   19.9916   -3.9498   -3.8573 O   0  0  0  0  0  0  0  0  0  0  0  0
  1  2  1  1
  3  2  1  1
  3  4  1  0
  4  5  1  0
  5  6  1  1
  5  7  1  0
  7  8  1  0
  8  9  1  0
  9 10  1  0
 10 11  1  0
 11 12  1  0
 11 13  1  0
  8 14  1  1
 14 15  1  0
 15 16  1  0
 16 17  1  1
 18 16  1  6
 18 19  1  0
 19 20  1  6
 19 21  1  0
 21 22  1  6
 21 23  1  0
 23 24  1  0
 24 25  1  0
 25 26  1  0
 26 27  1  1
 26 28  1  0
 28 29  1  0
 29 30  1  0
 30 31  1  6
 31 32  1  0
 32 33  1  0
 33 34  1  0
 34 35  1  0
 35 36  1  0
 36 37  1  0
 37 38  1  0
 38 39  1  1
 38 40  1  0
 40 41  1  0
 41 42  1  0
 42 43  1  0
 30 44  1  0
 44 45  1  1
 44 46  1  0
 18  1  1  0
 46  1  1  0
 13  3  1  0
M  RAD  8   7   2  10   2  11   2  14   2  20   3  23   2  25   2  28   2
M  RAD  8  31   3  32   2  33   2  36   2  39   3  40   2  42   2  45   3
M  END
>  <docking_score>  (1) 
1.8360000000000001

$$$$

     RDKit          3D

 46 48  0  0  0  0  0  0  0  0999 V2000
   18.0954   -2.2109   -4.1485 C   0  0  1  0  0  0  0  0  0  0  0  0
   17.4252   -3.4098   -4.0527 O   0  0  0  0  0  0  0  0  0  0  0  0
   18.2259   -4.5059   -4.3719 C   0  0  1  0  0  0  0  0  0  0  0  0
   18.3510   -5.3160   -3.1917 O   0  0  0  0  0  0  0  0  0  0  0  0
   19.2571   -6.3304   -3.5272 C   0  0  2  0  0  0  0  0  0  0  0  0
   19.1167   -7.5076   -2.5835 C   0  0  0  0  0  0  0  0  0  0  0  0
   20.6321   -5.7084   -3.4314 C   0  0  0  0  0  3  0  0  0  0  0  0
   21.2527   -5.4621   -4.7790 C   0  0  1  0  0  0  0  0  0  0  0  0
   20.6689   -6.2529   -5.8302 N   0  0  0  0  0  0  0  0  0  0  0  0
   19.5743   -5.5677   -6.4529 C   0  0  0  0  0  3  0  0  0  0  0  0
   18.2355   -6.1269   -6.0553 C   0  0  0  0  0  3  0  0  0  0  0  0
   17.4545   -6.3694   -7.3375 C   0  0  0  0  0  0  0  0  0  0  0  0
   17.5143   -5.3176   -5.2407 O   0  0  0  0  0  0  0  0  0  0  0  0
   21.3818   -4.0057   -5.1194 C   0  0  0  0  0  3  0  0  0  0  0  0
   20.3280   -3.5090   -5.8637 O   0  0  0  0  0  0  0  0  0  0  0  0
   20.0465   -2.1800   -5.6280 C   0  0  2  0  0  0  0  0  0  0  0  0
   20.7315   -1.7858   -4.4850 O   0  0  0  0  0  0  0  0  0  0  0  0
   18.5897   -1.8656   -5.5069 C   0  0  1  0  0  0  0  0  0  0  0  0
   17.7752   -2.4263   -6.6406 C   0  0  2  0  0  0  0  0  0  0  0  0
   18.1574   -1.6294   -7.8911 C   0  0  0  0  0  2  0  0  0  0  0  0
   16.3110   -2.4619   -6.4409 C   0  0  2  0  0  0  0  0  0  0  0  0
   15.8347   -3.7823   -6.4778 O   0  0  0  0  0  0  0  0  0  0  0  0
   15.5457   -1.7733   -7.5971 C   0  0  0  0  0  3  0  0  0  0  0  0
   14.2433   -2.2740   -7.5336 O   0  0  0  0  0  0  0  0  0  0  0  0
   13.8668   -2.7107   -6.2588 C   0  0  0  0  0  3  0  0  0  0  0  0
   13.4258   -1.6017   -5.2277 S   0  0  2  0  0  0  0  0  0  0  0  0
   11.4790   -2.0117   -4.6568 O   0  0  0  0  0  0  0  0  0  0  0  0
   13.7093   -0.1677   -5.2113 C   0  0  0  0  0  3  0  0  0  0  0  0
   14.4214    0.5782   -4.2879 O   0  0  0  0  0  0  0  0  0  0  0  0
   15.7875    0.3363   -4.3822 C   0  0  2  0  0  0  0  0  0  0  0  0
   16.3021    0.6399   -5.7321 C   0  0  0  0  0  2  0  0  0  0  0  0
   17.3378    1.8064   -5.7019 C   0  0  0  0  0  3  0  0  0  0  0  0
   16.5284    3.0487   -6.0787 C   0  0  0  0  0  3  0  0  0  0  0  0
   17.3970    3.8857   -6.7994 O   0  0  0  0  0  0  0  0  0  0  0  0
   17.3803    5.1286   -6.2979 O   0  0  0  0  0  0  0  0  0  0  0  0
   18.6167    5.4170   -5.8067 C   0  0  0  0  0  3  0  0  0  0  0  0
   18.8005    5.7815   -4.5701 O   0  0  0  0  0  0  0  0  0  0  0  0
   20.0632    6.3449   -4.2740 C   0  0  2  0  0  0  0  0  0  0  0  0
   21.1052    5.2631   -4.7127 C   0  0  0  0  0  2  0  0  0  0  0  0
   20.2982    6.5420   -2.7727 C   0  0  0  0  0  3  0  0  0  0  0  0
   20.8249    7.7766   -2.5147 O   0  0  0  0  0  0  0  0  0  0  0  0
   19.8859    8.7749   -2.4612 C   0  0  0  0  0  3  0  0  0  0  0  0
   18.7932    8.4629   -1.6502 O   0  0  0  0  0  0  0  0  0  0  0  0
   16.1044   -1.0539   -3.8811 C   0  0  2  0  0  0  0  0  0  0  0  0
   15.2400   -1.2794   -2.6435 C   0  0  0  0  0  2  0  0  0  0  0  0
   17.4266   -1.2010   -3.4968 O   0  0  0  0  0  0  0  0  0  0  0  0
  1  2  1  6
  3  2  1  1
  3  4  1  0
  4  5  1  0
  5  6  1  1
  5  7  1  0
  7  8  1  0
  8  9  1  0
  9 10  1  0
 10 11  1  0
 11 12  1  0
 11 13  1  0
  8 14  1  6
 14 15  1  0
 15 16  1  0
 16 17  1  1
 18 16  1  6
 18 19  1  0
 19 20  1  6
 19 21  1  0
 21 22  1  6
 21 23  1  0
 23 24  1  0
 24 25  1  0
 25 26  1  0
 26 27  1  6
 26 28  1  0
 28 29  1  0
 29 30  1  0
 30 31  1  6
 31 32  1  0
 32 33  1  0
 33 34  1  0
 34 35  1  0
 35 36  1  0
 36 37  1  0
 37 38  1  0
 38 39  1  1
 38 40  1  0
 40 41  1  0
 41 42  1  0
 42 43  1  0
 30 44  1  0
 44 45  1  1
 44 46  1  0
 18  1  1  0
 46  1  1  0
 13  3  1  0
M  RAD  8   7   2  10   2  11   2  14   2  20   3  23   2  25   2  28   2
M  RAD  8  31   3  32   2  33   2  36   2  39   3  40   2  42   2  45   3
M  END
>  <docking_score>  (2) 
3.7189999999999999

$$$$
