
     RDKit          3D

 29 29  0  0  0  0  0  0  0  0999 V2000
   13.7081   -2.3236   -5.3766 C   0  0  0  0  0  0  0  0  0  0  0  0
   13.5529   -0.8769   -4.8906 C   0  0  0  0  0  0  0  0  0  0  0  0
   12.0724   -0.7320   -4.5263 C   0  0  0  0  0  0  0  0  0  0  0  0
   14.4305   -0.7103   -3.6858 C   0  0  0  0  0  0  0  0  0  0  0  0
   15.8202   -1.2267   -3.8652 C   0  0  0  0  0  0  0  0  0  0  0  0
   16.3623   -1.0748   -5.2486 C   0  0  0  0  0  0  0  0  0  0  0  0
   17.5247   -1.9931   -5.5450 C   0  0  1  0  0  0  0  0  0  0  0  0
   17.1090   -3.1604   -6.4139 C   0  0  0  0  0  0  0  0  0  0  0  0
   18.5807   -1.1632   -6.2655 C   0  0  0  0  0  3  0  0  0  0  0  0
   19.4236   -2.0568   -7.1754 C   0  0  0  0  0  0  0  0  0  0  0  0
   18.7087   -3.3658   -7.2959 C   0  0  0  0  0  0  0  0  0  0  0  0
   19.6392   -4.4413   -7.7558 C   0  0  2  0  0  0  0  0  0  0  0  0
   20.6416   -3.9320   -8.7396 C   0  0  0  0  0  0  0  0  0  0  0  0
   18.9125   -5.6568   -8.2766 C   0  0  0  0  0  0  0  0  0  0  0  0
   19.7606   -6.8815   -8.0130 C   0  0  1  0  0  0  0  0  0  0  0  0
   20.3207   -6.7031   -6.6660 N   0  0  0  0  0  0  0  0  0  0  0  0
   18.9047   -8.1109   -7.9636 C   0  0  0  0  0  0  0  0  0  0  0  0
   17.5781   -7.8977   -7.3000 C   0  0  0  0  0  0  0  0  0  0  0  0
   17.8263   -7.9274   -5.7745 C   0  0  2  0  0  0  0  0  0  0  0  0
   17.4145   -9.2890   -5.3330 C   0  0  0  0  0  0  0  0  0  0  0  0
   17.1063   -6.7932   -5.1253 C   0  0  0  0  0  0  0  0  0  0  0  0
   17.7253   -6.3723   -3.8285 C   0  0  0  0  0  0  0  0  0  0  0  0
   18.5508   -5.1408   -3.8909 C   0  0  0  0  0  0  0  0  0  0  0  0
   18.9291   -4.5382   -2.5777 C   0  0  1  0  0  0  0  0  0  0  0  0
   20.1500   -4.9524   -2.1176 O   0  0  0  0  0  0  0  0  0  0  0  0
   18.8155   -3.0470   -2.6099 C   0  0  2  0  0  0  0  0  0  0  0  0
   19.6094   -2.1528   -3.3123 C   0  0  0  0  0  0  0  0  0  0  0  0
   19.8400   -2.2468   -1.9130 C   0  0  0  0  0  0  0  0  0  0  0  0
   20.5867   -1.8107   -0.7377 C   0  0  0  0  0  0  0  0  0  0  0  0
  1  2  1  0
  2  3  1  0
  2  4  1  0
  4  5  1  0
  5  6  1  0
  6  7  1  0
  7  8  1  6
  7  9  1  0
  9 10  1  0
 10 11  1  0
 11 12  1  0
 12 13  1  6
 12 14  1  0
 14 15  1  0
 15 16  1  1
 15 17  1  0
 17 18  1  0
 18 19  1  0
 19 20  1  1
 19 21  1  0
 21 22  1  0
 22 23  1  0
 23 24  1  0
 24 25  1  6
 24 26  1  0
 26 27  1  6
 27 28  2  0
 28 29  1  0
 28 26  1  0
M  RAD  1   9   2
M  END
>  <docking_score>  (1) 
-2.3490000000000002

$$$$

     RDKit          3D

 29 29  0  0  0  0  0  0  0  0999 V2000
    4.5726   13.4665    5.5532 C   0  0  0  0  0  0  0  0  0  0  0  0
    5.3558   13.6992    6.8515 C   0  0  0  0  0  0  0  0  0  0  0  0
    4.5380   14.7302    7.6350 C   0  0  0  0  0  0  0  0  0  0  0  0
    5.4223   12.3887    7.5781 C   0  0  0  0  0  0  0  0  0  0  0  0
    4.0891   11.7811    7.8669 C   0  0  0  0  0  0  0  0  0  0  0  0
    3.3569   11.2946    6.6594 C   0  0  0  0  0  0  0  0  0  0  0  0
    2.6818    9.9583    6.8612 C   0  0  1  0  0  0  0  0  0  0  0  0
    2.4267    9.2551    5.5456 C   0  0  0  0  0  0  0  0  0  0  0  0
    3.6082    9.1131    7.7276 C   0  0  0  0  0  3  0  0  0  0  0  0
    2.8617    8.6103    8.9632 C   0  0  0  0  0  0  0  0  0  0  0  0
    2.2593    9.8049    9.6333 C   0  0  0  0  0  0  0  0  0  0  0  0
    2.9353   10.0825   10.9371 C   0  0  2  0  0  0  0  0  0  0  0  0
    4.4163    9.9067   10.8489 C   0  0  0  0  0  0  0  0  0  0  0  0
    2.3455    9.2919   12.0789 C   0  0  0  0  0  0  0  0  0  0  0  0
    3.3499    9.2455   13.2094 C   0  0  1  0  0  0  0  0  0  0  0  0
    4.5434    9.9489   12.7188 N   0  0  0  0  0  0  0  0  0  0  0  0
    2.8475   10.0220   14.3888 C   0  0  0  0  0  0  0  0  0  0  0  0
    3.7734   11.1133   14.8331 C   0  0  0  0  0  0  0  0  0  0  0  0
    2.9704   12.4334   14.7868 C   0  0  2  0  0  0  0  0  0  0  0  0
    2.7183   12.6928   13.3419 C   0  0  0  0  0  0  0  0  0  0  0  0
    3.7162   13.5019   15.5137 C   0  0  0  0  0  0  0  0  0  0  0  0
    5.1258   13.6614   15.0348 C   0  0  0  0  0  0  0  0  0  0  0  0
    6.1238   13.9603   16.0915 C   0  0  0  0  0  0  0  0  0  0  0  0
    7.2233   14.8959   15.7087 C   0  0  1  0  0  0  0  0  0  0  0  0
    8.1437   15.0935   16.7025 O   0  0  0  0  0  0  0  0  0  0  0  0
    7.8641   14.4852   14.4209 C   0  0  2  0  0  0  0  0  0  0  0  0
    8.9125   15.1084   13.7609 C   0  0  0  0  0  0  0  0  0  0  0  0
    7.6134   15.3003   13.2175 C   0  0  0  0  0  0  0  0  0  0  0  0
    6.7632   15.8990   12.1939 C   0  0  0  0  0  0  0  0  0  0  0  0
  1  2  1  0
  2  3  1  0
  2  4  1  0
  4  5  1  0
  5  6  1  0
  6  7  1  0
  7  8  1  6
  7  9  1  0
  9 10  1  0
 10 11  1  0
 11 12  1  0
 12 13  1  6
 12 14  1  0
 14 15  1  0
 15 16  1  6
 15 17  1  0
 17 18  1  0
 18 19  1  0
 19 20  1  6
 19 21  1  0
 21 22  1  0
 22 23  1  0
 23 24  1  0
 24 25  1  1
 24 26  1  0
 26 27  1  1
 27 28  2  0
 28 29  1  0
 28 26  1  0
M  RAD  1   9   2
M  END
>  <docking_score>  (2) 
-1.6020000000000001

$$$$
