
     RDKit          3D

 56 57  0  0  0  0  0  0  0  0999 V2000
   13.5899   -1.0243   -3.6896 C   0  0  0  0  0  0  0  0  0  0  0  0
   12.7186   -0.5100   -4.8146 C   0  0  0  0  0  0  0  0  0  0  0  0
   11.7808   -1.6373   -5.2336 C   0  0  0  0  0  0  0  0  0  0  0  0
   13.5494   -0.1508   -6.0323 C   0  0  0  0  0  0  0  0  0  0  0  0
   14.4399    1.0252   -5.6262 C   0  0  0  0  0  0  0  0  0  0  0  0
   15.7169    0.4216   -5.0825 C   0  0  0  0  0  0  0  0  0  0  0  0
   16.8181    0.7189   -6.0602 C   0  0  1  0  0  0  0  0  0  0  0  0
   18.1118    1.0920   -5.3682 C   0  0  0  0  0  2  0  0  0  0  0  0
   17.0354   -0.3907   -7.0487 C   0  0  0  0  0  0  0  0  0  0  0  0
   15.8787   -1.3604   -6.9377 C   0  0  0  0  0  0  0  0  0  0  0  0
   16.1202   -2.4740   -7.9355 C   0  0  0  0  0  3  0  0  0  0  0  0
   15.2388   -3.6446   -7.4824 C   0  0  0  0  0  0  0  0  0  0  0  0
   16.1826   -4.7114   -6.9822 C   0  0  0  0  0  0  0  0  0  0  0  0
   17.3637   -4.0600   -6.2963 C   0  0  0  0  0  0  0  0  0  0  0  0
   16.8240   -3.2548   -5.1077 C   0  0  2  0  0  0  0  0  0  0  0  0
   17.6511   -1.9822   -4.9969 C   0  0  0  0  0  2  0  0  0  0  0  0
   17.0979   -4.0879   -3.8294 C   0  0  1  0  0  0  0  0  0  0  0  0
   17.1940   -5.5141   -4.3391 C   0  0  0  0  0  0  0  0  0  0  0  0
   18.4348   -3.6916   -3.3371 C   0  0  0  0  0  3  0  0  0  0  0  0
   18.5327   -3.2716   -1.9156 C   0  0  2  0  0  0  0  0  0  0  0  0
   18.0195   -1.8657   -1.6123 C   0  0  0  0  0  0  0  0  0  0  0  0
   19.5012   -2.1807   -1.5727 C   0  0  2  0  0  0  0  0  0  0  0  0
   20.3061   -1.4615   -2.6096 C   0  0  0  0  0  0  0  0  0  0  0  0
   19.8757   -0.1548   -2.6779 O   0  0  0  0  0  0  0  0  0  0  0  0
   15.9836   -3.8133   -2.9233 C   0  0  1  0  0  0  0  0  0  0  0  0
   15.2590   -2.5232   -3.1861 C   0  0  0  0  0  0  0  0  0  0  0  0
   15.1191   -4.9139   -2.4589 C   0  0  1  0  0  0  0  0  0  0  0  0
   14.7142   -5.5908   -3.6365 O   0  0  0  0  0  0  0  0  0  0  0  0
   15.6395   -6.4843   -4.0989 C   0  0  0  0  0  3  0  0  0  0  0  0
   14.9666   -7.3382   -5.1513 C   0  0  0  0  0  0  0  0  0  0  0  0
   16.0174   -7.7734   -6.1483 C   0  0  0  0  0  3  0  0  0  0  0  0
   16.6118   -9.0680   -5.6691 C   0  0  0  0  0  0  0  0  0  0  0  0
   15.7305  -10.2540   -5.9268 C   0  0  0  0  0  0  0  0  0  0  0  0
   16.5168  -11.5123   -6.1696 C   0  0  0  0  0  2  0  0  0  0  0  0
   15.8032   -5.9657   -1.6117 C   0  0  1  0  0  0  0  0  0  0  0  0
   17.2183   -6.1052   -2.0282 C   0  0  1  0  0  0  0  0  0  0  0  0
   17.9750   -6.2688   -0.7228 C   0  0  0  0  0  3  0  0  0  0  0  0
   16.8591   -6.3793    0.2954 C   0  0  0  0  0  0  0  0  0  0  0  0
   15.7814   -5.6978   -0.2750 O   0  0  0  0  0  0  0  0  0  0  0  0
   17.4583   -7.3149   -2.9161 C   0  0  0  0  0  3  0  0  0  0  0  0
   18.9288   -7.4493   -3.1498 C   0  0  2  0  0  0  0  0  0  0  0  0
   19.7552   -7.2274   -2.0059 N   0  0  0  0  0  0  0  0  0  0  0  0
   21.0314   -6.8460   -2.3997 N   0  0  0  0  0  0  0  0  0  0  0  0
   21.2269   -5.4557   -2.1066 C   0  0  0  0  0  2  0  0  0  0  0  0
   19.4660   -6.4793   -4.6160 P   0  0  0  0  0  0  0  0  0  0  0  0
   19.4967   -7.5224   -6.0814 N   0  0  0  0  0  0  0  0  0  0  0  0
   18.8086   -8.6907   -5.8010 N   0  0  0  0  0  0  0  0  0  0  0  0
   19.1253   -9.6729   -6.7471 N   0  0  0  0  0  0  0  0  0  0  0  0
   18.8912   -6.8710   -7.1527 N   0  0  0  0  0  0  0  0  0  0  0  0
   19.8448   -6.5907   -8.1535 N   0  0  0  0  0  0  0  0  0  0  0  0
   19.6362   -5.2215   -8.6059 C   0  0  0  0  0  3  0  0  0  0  0  0
   20.4421   -4.3738   -7.7378 N   0  0  0  0  0  0  0  0  0  0  0  0
   20.4183   -3.0678   -8.2491 N   0  0  0  0  0  0  0  0  0  0  0  0
   21.0668   -2.2021   -7.3829 N   0  0  0  0  0  0  0  0  0  0  0  0
   20.9003   -2.6868   -6.0267 C   0  0  0  0  0  3  0  0  0  0  0  0
   20.3015   -1.6691   -5.2093 N   0  0  0  0  0  0  0  0  0  0  0  0
  1  2  1  0
  2  3  1  0
  2  4  1  0
  4  5  1  0
  5  6  1  0
  6  7  1  0
  7  8  1  1
  7  9  1  0
  9 10  1  0
 10 11  1  0
 11 12  1  0
 12 13  1  0
 13 14  1  0
 14 15  1  0
 15 16  1  1
 15 17  1  0
 17 18  1  6
 17 19  1  0
 20 19  1  6
 20 21  1  0
 20 22  1  0
 22 23  1  6
 23 24  1  0
 17 25  1  0
 25 26  1  6
 25 27  1  0
 27 28  1  6
 28 29  1  0
 29 30  1  0
 30 31  1  0
 31 32  1  0
 32 33  1  0
 33 34  1  0
 27 35  1  0
 35 36  1  0
 36 37  1  0
 37 38  1  0
 38 39  1  0
 36 40  1  6
 41 40  1  1
 41 42  1  0
 42 43  1  0
 43 44  1  0
 41 45  1  0
 45 46  1  0
 46 47  1  0
 47 48  1  0
 46 49  1  0
 49 50  1  0
 50 51  1  0
 51 52  1  0
 52 53  1  0
 53 54  1  0
 54 55  1  0
 55 56  1  0
 22 21  1  0
 35 39  1  1
M  RAD  8   8   3  11   2  16   3  19   2  29   2  31   2  34   3  37   2
M  RAD  4  40   2  44   3  51   2  55   2
M  END
>  <docking_score>  (1) 
18.649000000000001

$$$$
