
     RDKit          3D

 39 42  0  0  0  0  0  0  0  0999 V2000
   17.0807  -10.6128   -6.2898 C   0  0  0  0  0  0  0  0  0  0  0  0
   18.2347   -9.7225   -6.6078 C   0  0  1  0  0  0  0  0  0  0  0  0
   17.9493   -8.9521   -7.8453 C   0  0  0  0  0  0  0  0  0  0  0  0
   19.0075   -7.9456   -8.2121 C   0  0  2  0  0  0  0  0  0  0  0  0
   20.1696   -8.6723   -8.5246 O   0  0  0  0  0  0  0  0  0  0  0  0
   19.3199   -7.1436   -6.9692 C   0  0  2  0  0  0  0  0  0  0  0  0
   19.9415   -5.9686   -7.1746 O   0  0  0  0  0  0  0  0  0  0  0  0
   19.8758   -8.0614   -5.9603 C   0  0  1  0  0  0  0  0  0  0  0  0
   20.6303   -7.5299   -4.9716 O   0  0  0  0  0  0  0  0  0  0  0  0
   18.7052   -8.9110   -5.4468 C   0  0  1  0  0  0  0  0  0  0  0  0
   17.6824   -8.0808   -4.8576 N   0  0  0  0  0  0  0  0  0  0  0  0
   17.6702   -6.7379   -5.3049 C   0  0  1  0  0  0  0  0  0  0  0  0
   16.5789   -6.4642   -6.3503 C   0  0  0  0  0  0  0  0  0  0  0  0
   17.3212   -5.6395   -7.4128 C   0  0  1  0  0  0  0  0  0  0  0  0
   16.3727   -5.0285   -8.2592 O   0  0  0  0  0  0  0  0  0  0  0  0
   18.0444   -4.6337   -6.7118 N   0  0  0  0  0  0  0  0  0  0  0  0
   19.4266   -4.8774   -6.5181 C   0  0  1  0  0  0  0  0  0  0  0  0
   19.8860   -4.8744   -5.1089 C   0  0  1  0  0  0  0  0  0  0  0  0
   20.7079   -3.7429   -4.9155 O   0  0  0  0  0  0  0  0  0  0  0  0
   18.8755   -4.9167   -4.0578 C   0  0  2  0  0  0  0  0  0  0  0  0
   19.4845   -5.3920   -2.8719 O   0  0  0  0  0  0  0  0  0  0  0  0
   17.6460   -5.6864   -4.2826 C   0  0  1  0  0  0  0  0  0  0  0  0
   16.5775   -4.7772   -4.4632 O   0  0  0  0  0  0  0  0  0  0  0  0
   16.2260   -4.2416   -3.3194 O   0  0  0  0  0  0  0  0  0  0  0  0
   17.0146   -3.2595   -2.9530 O   0  0  0  0  0  0  0  0  0  0  0  0
   16.4715   -2.7274   -1.7785 C   0  0  0  0  0  0  0  0  0  0  0  0
   16.9184   -1.3968   -1.7120 O   0  0  0  0  0  0  0  0  0  0  0  0
   18.1841   -1.2818   -2.2787 C   0  0  0  0  0  3  0  0  0  0  0  0
   19.1133   -1.0442   -1.2506 O   0  0  0  0  0  0  0  0  0  0  0  0
   20.3826   -1.0256   -1.8310 C   0  0  0  0  0  3  0  0  0  0  0  0
   20.5687    0.1004   -2.6251 O   0  0  0  0  0  0  0  0  0  0  0  0
   21.2261   -0.2514   -3.8022 C   0  0  2  0  0  0  0  0  0  0  0  0
   21.3781    0.9314   -4.7041 N   0  0  0  0  0  0  0  0  0  0  0  0
   20.4839   -0.1011   -5.0929 C   0  0  2  0  0  0  0  0  0  0  0  0
   19.1513   -0.0954   -5.0827 O   0  0  0  0  0  0  0  0  0  0  0  0
   18.4320   -1.1670   -5.3930 C   0  0  0  0  0  0  0  0  0  0  0  0
   17.8369   -1.2598   -6.7093 C   0  0  2  0  0  0  0  0  0  0  0  0
   16.5271   -2.0312   -6.6928 C   0  0  0  0  0  0  0  0  0  0  0  0
   18.6452   -1.6078   -7.7432 O   0  0  0  0  0  0  0  0  0  0  0  0
  2  1  1  1
  2  3  1  0
  3  4  1  0
  4  5  1  1
  4  6  1  0
  6  7  1  6
  6  8  1  0
  8  9  1  1
  8 10  1  0
 10 11  1  6
 11 12  1  0
 12 13  1  6
 13 14  1  0
 14 15  1  6
 14 16  1  0
 17 16  1  1
 17 18  1  0
 18 19  1  1
 18 20  1  0
 20 21  1  1
 20 22  1  0
 22 23  1  6
 23 24  1  0
 24 25  1  0
 25 26  1  0
 26 27  1  0
 27 28  1  0
 28 29  1  0
 29 30  1  0
 30 31  1  0
 32 31  1  1
 32 33  1  0
 32 34  1  0
 34 35  1  1
 35 36  1  0
 36 37  1  0
 37 38  1  1
 37 39  1  0
 10  2  1  0
 17  7  1  0
 22 12  1  0
 34 33  1  0
M  RAD  2  28   2  30   2
M  END
>  <docking_score>  (1) 
-2.9089999999999998

$$$$

     RDKit          3D

 39 42  0  0  0  0  0  0  0  0999 V2000
    6.0802    6.1084    4.9807 C   0  0  0  0  0  0  0  0  0  0  0  0
    5.0037    6.7360    4.1603 C   0  0  1  0  0  0  0  0  0  0  0  0
    3.7563    6.8373    4.9605 C   0  0  0  0  0  0  0  0  0  0  0  0
    2.6241    7.5453    4.2646 C   0  0  2  0  0  0  0  0  0  0  0  0
    2.2593    6.7478    3.1660 O   0  0  0  0  0  0  0  0  0  0  0  0
    3.1754    8.8345    3.6994 C   0  0  2  0  0  0  0  0  0  0  0  0
    2.2621    9.7705    3.3844 O   0  0  0  0  0  0  0  0  0  0  0  0
    4.2006    8.4936    2.6983 C   0  0  1  0  0  0  0  0  0  0  0  0
    4.4996    9.4212    1.7605 O   0  0  0  0  0  0  0  0  0  0  0  0
    5.4255    7.9939    3.4766 C   0  0  1  0  0  0  0  0  0  0  0  0
    5.9203    9.0117    4.3721 N   0  0  0  0  0  0  0  0  0  0  0  0
    4.9685    9.9873    4.7539 C   0  0  1  0  0  0  0  0  0  0  0  0
    4.3934    9.7466    6.1574 C   0  0  0  0  0  0  0  0  0  0  0  0
    2.8872    9.9699    5.9537 C   0  0  1  0  0  0  0  0  0  0  0  0
    2.2745   10.1194    7.2152 O   0  0  0  0  0  0  0  0  0  0  0  0
    2.7537   11.1813    5.2183 N   0  0  0  0  0  0  0  0  0  0  0  0
    2.5105   11.0463    3.8290 C   0  0  1  0  0  0  0  0  0  0  0  0
    3.4949   11.7070    2.9395 C   0  0  1  0  0  0  0  0  0  0  0  0
    2.8539   12.7902    2.3001 O   0  0  0  0  0  0  0  0  0  0  0  0
    4.7469   12.1712    3.5266 C   0  0  2  0  0  0  0  0  0  0  0  0
    5.7032   12.3037    2.4918 O   0  0  0  0  0  0  0  0  0  0  0  0
    5.3535   11.3958    4.6155 C   0  0  1  0  0  0  0  0  0  0  0  0
    5.1995   12.1222    5.8195 O   0  0  0  0  0  0  0  0  0  0  0  0
    5.8609   11.5484    6.7951 O   0  0  0  0  0  0  0  0  0  0  0  0
    5.7156   12.1675    7.9423 O   0  0  0  0  0  0  0  0  0  0  0  0
    4.4888   12.8375    7.8827 C   0  0  0  0  0  0  0  0  0  0  0  0
    4.5378   13.8270    8.8793 O   0  0  0  0  0  0  0  0  0  0  0  0
    5.8209   14.3574    8.9730 C   0  0  0  0  0  3  0  0  0  0  0  0
    6.1945   14.3847   10.3282 O   0  0  0  0  0  0  0  0  0  0  0  0
    7.5290   14.7896   10.3854 C   0  0  0  0  0  3  0  0  0  0  0  0
    7.8147   15.4535   11.5732 O   0  0  0  0  0  0  0  0  0  0  0  0
    8.7721   14.7444   12.2957 C   0  0  2  0  0  0  0  0  0  0  0  0
    8.4696   13.2801   12.2909 N   0  0  0  0  0  0  0  0  0  0  0  0
    8.3220   13.9939   13.5097 C   0  0  2  0  0  0  0  0  0  0  0  0
    7.2002   14.3635   14.1269 O   0  0  0  0  0  0  0  0  0  0  0  0
    6.0266   14.4033   13.5079 C   0  0  0  0  0  0  0  0  0  0  0  0
    4.8151   14.2362   14.2822 C   0  0  2  0  0  0  0  0  0  0  0  0
    4.9532   13.1479   15.3346 C   0  0  0  0  0  0  0  0  0  0  0  0
    3.6388   14.1756   13.6069 O   0  0  0  0  0  0  0  0  0  0  0  0
  2  1  1  1
  2  3  1  0
  3  4  1  0
  4  5  1  6
  4  6  1  0
  6  7  1  6
  6  8  1  0
  8  9  1  1
  8 10  1  0
 10 11  1  1
 11 12  1  0
 12 13  1  1
 13 14  1  0
 14 15  1  1
 14 16  1  0
 17 16  1  1
 17 18  1  0
 18 19  1  1
 18 20  1  0
 20 21  1  6
 20 22  1  0
 22 23  1  1
 23 24  1  0
 24 25  1  0
 25 26  1  0
 26 27  1  0
 27 28  1  0
 28 29  1  0
 29 30  1  0
 30 31  1  0
 32 31  1  6
 32 33  1  0
 32 34  1  0
 34 35  1  6
 35 36  1  0
 36 37  1  0
 37 38  1  6
 37 39  1  0
 10  2  1  0
 17  7  1  0
 22 12  1  0
 34 33  1  0
M  RAD  2  28   2  30   2
M  END
>  <docking_score>  (2) 
-0.307

$$$$
