
     RDKit          3D

 11 10  0  0  0  0  0  0  0  0999 V2000
   19.4938   10.8730   -1.7410 O   0  0  0  0  0  0  0  0  0  0  0  0
   19.4490    9.6111   -1.1492 C   0  0  0  0  0  0  0  0  0  0  0  0
   19.8836    8.5939   -2.1604 C   0  0  0  0  0  3  0  0  0  0  0  0
   18.8747    7.6610   -2.5390 N   0  0  0  0  0  0  0  0  0  0  0  0
   19.3593    6.5039   -3.2389 C   0  0  2  0  0  0  0  0  0  0  0  0
   20.7706    6.1689   -2.7842 C   0  0  0  0  0  0  0  0  0  0  0  0
   20.7844    5.0381   -2.0026 O   0  0  0  0  0  0  0  0  0  0  0  0
   19.3335    6.8135   -4.7149 C   0  0  1  0  0  0  0  0  0  0  0  0
   20.4952    6.3363   -5.3503 O   0  0  0  0  0  0  0  0  0  0  0  0
   18.1221    6.2150   -5.3961 C   0  0  0  0  0  3  0  0  0  0  0  0
   18.4559    5.6613   -6.6204 O   0  0  0  0  0  0  0  0  0  0  0  0
  1  2  1  0
  2  3  1  0
  3  4  1  0
  4  5  1  0
  5  6  1  1
  6  7  1  0
  5  8  1  0
  8  9  1  6
  8 10  1  0
 10 11  1  0
M  RAD  2   3   2  10   2
M  END
>  <docking_score>  (1) 
-3.008

$$$$

     RDKit          3D

 11 10  0  0  0  0  0  0  0  0999 V2000
   14.7925    0.4338   -5.6950 O   0  0  0  0  0  0  0  0  0  0  0  0
   13.9430   -0.4851   -5.0796 C   0  0  0  0  0  0  0  0  0  0  0  0
   14.6164   -1.0060   -3.8462 C   0  0  0  0  0  3  0  0  0  0  0  0
   15.1664   -2.3147   -3.9750 N   0  0  0  0  0  0  0  0  0  0  0  0
   16.4003   -2.5193   -3.2684 C   0  0  2  0  0  0  0  0  0  0  0  0
   17.5474   -1.8558   -4.0132 C   0  0  0  0  0  0  0  0  0  0  0  0
   18.7459   -2.4612   -3.7185 O   0  0  0  0  0  0  0  0  0  0  0  0
   16.6261   -4.0065   -3.1562 C   0  0  1  0  0  0  0  0  0  0  0  0
   16.2536   -4.4781   -1.8834 O   0  0  0  0  0  0  0  0  0  0  0  0
   15.8560   -4.7752   -4.2077 C   0  0  0  0  0  3  0  0  0  0  0  0
   16.6924   -5.2247   -5.2154 O   0  0  0  0  0  0  0  0  0  0  0  0
  1  2  1  0
  2  3  1  0
  3  4  1  0
  4  5  1  0
  5  6  1  6
  6  7  1  0
  5  8  1  0
  8  9  1  1
  8 10  1  0
 10 11  1  0
M  RAD  2   3   2  10   2
M  END
>  <docking_score>  (2) 
-2.7709999999999999

$$$$

     RDKit          3D

 11 10  0  0  0  0  0  0  0  0999 V2000
   18.7311   -4.9917   -2.4268 O   0  0  0  0  0  0  0  0  0  0  0  0
   17.3592   -4.9517   -2.6736 C   0  0  0  0  0  0  0  0  0  0  0  0
   16.7804   -3.7670   -1.9610 C   0  0  0  0  0  3  0  0  0  0  0  0
   16.1158   -2.8301   -2.8049 N   0  0  0  0  0  0  0  0  0  0  0  0
   16.5395   -2.8528   -4.1774 C   0  0  2  0  0  0  0  0  0  0  0  0
   17.6321   -1.8210   -4.4061 C   0  0  0  0  0  0  0  0  0  0  0  0
   18.2718   -2.0335   -5.6041 O   0  0  0  0  0  0  0  0  0  0  0  0
   15.3359   -2.5549   -5.0364 C   0  0  1  0  0  0  0  0  0  0  0  0
   14.4496   -3.6481   -5.0586 O   0  0  0  0  0  0  0  0  0  0  0  0
   14.5893   -1.3293   -4.5564 C   0  0  0  0  0  3  0  0  0  0  0  0
   14.1899   -0.5358   -5.6184 O   0  0  0  0  0  0  0  0  0  0  0  0
  1  2  1  0
  2  3  1  0
  3  4  1  0
  4  5  1  0
  5  6  1  1
  6  7  1  0
  5  8  1  0
  8  9  1  1
  8 10  1  0
 10 11  1  0
M  RAD  2   3   2  10   2
M  END
>  <docking_score>  (3) 
-2.665

$$$$
