
     RDKit          3D

 25 25  0  0  0  0  0  0  0  0999 V2000
   18.6266   -1.9036   -7.5228 C   0  0  0  0  0  0  0  0  0  0  0  0
   18.3586   -1.2320   -6.2005 C   0  0  0  0  0  3  0  0  0  0  0  0
   16.8995   -0.9674   -5.9641 C   0  0  0  0  0  0  0  0  0  0  0  0
   16.0300   -2.1712   -6.1846 C   0  0  2  0  0  0  0  0  0  0  0  0
   15.1516   -2.0161   -7.2520 O   0  0  0  0  0  0  0  0  0  0  0  0
   15.1902   -2.3724   -4.9398 C   0  0  2  0  0  0  0  0  0  0  0  0
   13.8577   -2.0773   -5.1319 O   0  0  0  0  0  0  0  0  0  0  0  0
   15.7787   -1.6325   -3.7663 C   0  0  1  0  0  0  0  0  0  0  0  0
   14.7591   -0.9254   -3.1330 O   0  0  0  0  0  0  0  0  0  0  0  0
   16.4368   -2.6137   -2.8268 C   0  0  0  0  0  3  0  0  0  0  0  0
   16.0328   -3.9670   -3.1548 N   0  0  0  0  0  0  0  0  0  0  0  0
   16.7273   -4.9387   -2.2971 C   0  0  0  0  0  3  0  0  0  0  0  0
   17.5196   -5.8243   -3.2287 C   0  0  1  0  0  0  0  0  0  0  0  0
   16.7984   -6.1756   -4.3617 O   0  0  0  0  0  0  0  0  0  0  0  0
   17.6623   -6.7551   -5.2613 C   0  0  1  0  0  0  0  0  0  0  0  0
   17.6207   -8.2719   -5.2023 C   0  0  0  0  0  0  0  0  0  0  0  0
   18.8848   -8.6927   -4.7811 O   0  0  0  0  0  0  0  0  0  0  0  0
   17.4548   -6.2524   -6.6717 C   0  0  1  0  0  0  0  0  0  0  0  0
   16.0999   -5.5754   -6.7535 C   0  0  0  0  0  2  0  0  0  0  0  0
   18.4781   -5.3464   -6.9499 O   0  0  0  0  0  0  0  0  0  0  0  0
   19.4608   -5.3418   -5.9563 C   0  0  0  0  0  0  0  0  0  0  0  0
   18.9825   -4.4939   -4.7739 C   0  0  0  0  0  3  0  0  0  0  0  0
   18.8831   -5.3033   -3.5277 C   0  0  1  0  0  0  0  0  0  0  0  0
   19.4251   -4.7055   -2.4144 O   0  0  0  0  0  0  0  0  0  0  0  0
   20.6822   -4.3787   -2.5524 O   0  0  0  0  0  0  0  0  0  0  0  0
  1  2  1  0
  2  3  1  0
  3  4  1  0
  4  5  1  6
  4  6  1  0
  6  7  1  6
  6  8  1  0
  8  9  1  1
  8 10  1  0
 10 11  1  0
 11 12  1  0
 13 12  1  6
 13 14  1  0
 14 15  1  0
 15 16  1  6
 16 17  1  0
 15 18  1  0
 18 19  1  1
 18 20  1  0
 20 21  1  0
 21 22  1  0
 22 23  1  0
 23 24  1  1
 24 25  1  0
 23 13  1  0
M  RAD  5   2   2  10   2  12   2  19   3  22   2
M  END
>  <docking_score>  (1) 
-4.1130000000000004

$$$$

     RDKit          3D

 25 25  0  0  0  0  0  0  0  0999 V2000
   19.9090   -0.8044   -2.0183 C   0  0  0  0  0  0  0  0  0  0  0  0
   19.7960   -2.2200   -1.5136 C   0  0  0  0  0  3  0  0  0  0  0  0
   18.5104   -2.8834   -1.9163 C   0  0  0  0  0  0  0  0  0  0  0  0
   17.5228   -1.9427   -2.5436 C   0  0  2  0  0  0  0  0  0  0  0  0
   16.3619   -1.7965   -1.7914 O   0  0  0  0  0  0  0  0  0  0  0  0
   17.1175   -2.5203   -3.8842 C   0  0  2  0  0  0  0  0  0  0  0  0
   16.8930   -1.5566   -4.8436 O   0  0  0  0  0  0  0  0  0  0  0  0
   15.9523   -3.4644   -3.7352 C   0  0  1  0  0  0  0  0  0  0  0  0
   14.9364   -3.0520   -4.5945 O   0  0  0  0  0  0  0  0  0  0  0  0
   16.3988   -4.8730   -4.0430 C   0  0  0  0  0  3  0  0  0  0  0  0
   15.2549   -5.6965   -4.3832 N   0  0  0  0  0  0  0  0  0  0  0  0
   15.3378   -6.1493   -5.7797 C   0  0  0  0  0  3  0  0  0  0  0  0
   16.8096   -6.2992   -6.0818 C   0  0  1  0  0  0  0  0  0  0  0  0
   17.2663   -7.5893   -5.8484 O   0  0  0  0  0  0  0  0  0  0  0  0
   18.5278   -7.7043   -6.3839 C   0  0  1  0  0  0  0  0  0  0  0  0
   19.6144   -7.5152   -5.3401 C   0  0  0  0  0  0  0  0  0  0  0  0
   19.1203   -8.0441   -4.1449 O   0  0  0  0  0  0  0  0  0  0  0  0
   18.7178   -8.9935   -7.1500 C   0  0  1  0  0  0  0  0  0  0  0  0
   17.6144   -9.9588   -6.7609 C   0  0  0  0  0  2  0  0  0  0  0  0
   18.6517   -8.6884   -8.5094 O   0  0  0  0  0  0  0  0  0  0  0  0
   18.6423   -7.3099   -8.7389 C   0  0  0  0  0  0  0  0  0  0  0  0
   17.2281   -6.7675   -8.5115 C   0  0  0  0  0  3  0  0  0  0  0  0
   17.2006   -5.7603   -7.4147 C   0  0  1  0  0  0  0  0  0  0  0  0
   16.4847   -4.6224   -7.7030 O   0  0  0  0  0  0  0  0  0  0  0  0
   17.0874   -3.5185   -7.3502 O   0  0  0  0  0  0  0  0  0  0  0  0
  1  2  1  0
  2  3  1  0
  3  4  1  0
  4  5  1  1
  4  6  1  0
  6  7  1  6
  6  8  1  0
  8  9  1  6
  8 10  1  0
 10 11  1  0
 11 12  1  0
 13 12  1  6
 13 14  1  0
 14 15  1  0
 15 16  1  1
 16 17  1  0
 15 18  1  0
 18 19  1  1
 18 20  1  0
 20 21  1  0
 21 22  1  0
 22 23  1  0
 23 24  1  6
 24 25  1  0
 23 13  1  0
M  RAD  5   2   2  10   2  12   2  19   3  22   2
M  END
>  <docking_score>  (2) 
-3.3650000000000002

$$$$

     RDKit          3D

 25 25  0  0  0  0  0  0  0  0999 V2000
   19.5710   -8.1195   -6.7494 C   0  0  0  0  0  0  0  0  0  0  0  0
   18.3469   -8.2203   -5.8761 C   0  0  0  0  0  3  0  0  0  0  0  0
   18.6612   -8.1001   -4.4126 C   0  0  0  0  0  0  0  0  0  0  0  0
   19.2028   -6.7545   -4.0258 C   0  0  2  0  0  0  0  0  0  0  0  0
   20.4290   -6.8317   -3.3737 O   0  0  0  0  0  0  0  0  0  0  0  0
   18.2226   -6.1185   -3.0615 C   0  0  2  0  0  0  0  0  0  0  0  0
   16.9340   -6.0758   -3.5486 O   0  0  0  0  0  0  0  0  0  0  0  0
   18.7105   -4.7663   -2.6092 C   0  0  1  0  0  0  0  0  0  0  0  0
   19.4070   -4.1734   -3.6600 O   0  0  0  0  0  0  0  0  0  0  0  0
   17.5360   -3.9217   -2.1785 C   0  0  0  0  0  3  0  0  0  0  0  0
   17.4949   -2.6936   -2.9482 N   0  0  0  0  0  0  0  0  0  0  0  0
   16.3053   -2.6614   -3.8119 C   0  0  0  0  0  3  0  0  0  0  0  0
   16.8192   -2.4959   -5.2219 C   0  0  1  0  0  0  0  0  0  0  0  0
   17.0371   -3.7150   -5.8495 O   0  0  0  0  0  0  0  0  0  0  0  0
   17.2513   -3.4798   -7.1875 C   0  0  1  0  0  0  0  0  0  0  0  0
   18.7291   -3.4437   -7.5350 C   0  0  0  0  0  0  0  0  0  0  0  0
   18.8760   -4.1371   -8.7392 O   0  0  0  0  0  0  0  0  0  0  0  0
   16.5000   -4.4464   -8.0742 C   0  0  1  0  0  0  0  0  0  0  0  0
   16.0653   -5.6362   -7.2398 C   0  0  0  0  0  2  0  0  0  0  0  0
   15.3928   -3.7717   -8.5883 O   0  0  0  0  0  0  0  0  0  0  0  0
   15.4331   -2.4036   -8.3059 C   0  0  0  0  0  0  0  0  0  0  0  0
   14.9553   -2.1679   -6.8700 C   0  0  0  0  0  3  0  0  0  0  0  0
   16.0189   -1.5400   -6.0378 C   0  0  1  0  0  0  0  0  0  0  0  0
   15.5908   -0.4873   -5.2639 O   0  0  0  0  0  0  0  0  0  0  0  0
   14.6024    0.1848   -5.7907 O   0  0  0  0  0  0  0  0  0  0  0  0
  1  2  1  0
  2  3  1  0
  3  4  1  0
  4  5  1  1
  4  6  1  0
  6  7  1  6
  6  8  1  0
  8  9  1  6
  8 10  1  0
 10 11  1  0
 11 12  1  0
 13 12  1  1
 13 14  1  0
 14 15  1  0
 15 16  1  1
 16 17  1  0
 15 18  1  0
 18 19  1  1
 18 20  1  0
 20 21  1  0
 21 22  1  0
 22 23  1  0
 23 24  1  1
 24 25  1  0
 23 13  1  0
M  RAD  5   2   2  10   2  12   2  19   3  22   2
M  END
>  <docking_score>  (3) 
-3.347

$$$$
