
     RDKit          3D

 40 46  0  0  0  0  0  0  0  0999 V2000
   16.6234   -1.8641   -1.8109 C   0  0  0  0  0  0  0  0  0  0  0  0
   17.4065   -2.2269   -2.9240 O   0  0  0  0  0  0  0  0  0  0  0  0
   16.9055   -1.9005   -4.1894 C   0  0  0  0  0  0  0  0  0  0  0  0
   15.5853   -1.9552   -4.4558 C   0  0  0  0  0  0  0  0  0  0  0  0
   15.0717   -1.6068   -5.7100 C   0  0  0  0  0  0  0  0  0  0  0  0
   15.9283   -1.2118   -6.6675 C   0  0  0  0  0  0  0  0  0  0  0  0
   17.3048   -1.1456   -6.3959 C   0  0  0  0  0  0  0  0  0  0  0  0
   17.8680   -1.4788   -5.2130 C   0  0  0  0  0  0  0  0  0  0  0  0
   19.1517   -1.3886   -4.7518 C   0  0  2  0  0  0  0  0  0  0  0  0
   19.6322   -0.8460   -3.4967 C   0  0  0  0  0  0  0  0  0  0  0  0
   20.9708   -0.2418   -3.8999 C   0  0  2  0  0  0  0  0  0  0  0  0
   20.9010    1.1459   -4.4511 C   0  0  0  0  0  0  0  0  0  0  0  0
   21.3825    2.1456   -3.5500 C   0  0  0  0  0  0  0  0  0  0  0  0
   21.3013    3.4660   -3.8536 C   0  0  0  0  0  0  0  0  0  0  0  0
   20.7642    3.9156   -5.0440 C   0  0  0  0  0  0  0  0  0  0  0  0
   20.7496    5.2753   -5.3159 O   0  0  0  0  0  0  0  0  0  0  0  0
   20.2874    2.9657   -5.9082 C   0  0  0  0  0  0  0  0  0  0  0  0
   20.3828    1.5966   -5.5899 C   0  0  0  0  0  0  0  0  0  0  0  0
   21.2825   -0.9805   -5.1524 N   0  0  0  0  0  0  0  0  0  0  0  0
   20.3619   -1.5571   -5.6178 C   0  0  0  0  0  0  0  0  0  0  0  0
   20.3281   -2.3774   -6.8512 C   0  0  1  0  0  0  0  0  0  0  0  0
   20.3962   -1.7015   -8.1656 C   0  0  0  0  0  0  0  0  0  0  0  0
   21.3556   -3.6234   -6.8364 C   0  0  2  0  0  0  0  0  0  0  0  0
   20.5329   -4.0862   -5.6153 N   0  0  0  0  0  0  0  0  0  0  0  0
   20.1617   -5.4253   -5.9968 C   0  0  0  0  0  0  0  0  0  0  0  0
   19.0885   -4.5485   -7.2726 C   0  0  0  0  0  0  0  0  0  0  0  0
   19.4387   -3.5368   -6.9201 C   0  0  0  0  0  0  0  0  0  0  0  0
   20.7523   -3.4686   -8.1962 C   0  0  2  0  0  0  0  0  0  0  0  0
   21.3678   -4.6268   -7.7821 N   0  0  0  0  0  0  0  0  0  0  0  0
   21.1719   -5.8537   -8.2224 C   0  0  0  0  0  0  0  0  0  0  0  0
   19.8055   -6.5727   -8.1941 C   0  0  0  0  0  0  0  0  0  0  0  0
   18.6778   -5.8620   -7.6694 C   0  0  0  0  0  0  0  0  0  0  0  0
   17.5154   -6.3418   -7.3445 N   0  0  0  0  0  0  0  0  0  0  0  0
   16.3162   -5.9090   -7.0085 O   0  0  0  0  0  0  0  0  0  0  0  0
   16.4907   -4.9486   -6.0913 O   0  0  0  0  0  0  0  0  0  0  0  0
   16.0484   -5.4002   -4.9031 N   0  0  0  0  0  0  0  0  0  0  0  0
   16.7049   -6.1753   -3.9811 C   0  0  0  0  0  0  0  0  0  0  0  0
   17.7067   -6.0546   -3.2175 C   0  0  0  0  0  0  0  0  0  0  0  0
   18.4802   -4.8627   -3.1476 N   0  0  0  0  0  0  0  0  0  0  0  0
   19.3168   -4.8928   -2.1766 O   0  0  0  0  0  0  0  0  0  0  0  0
  1  2  1  0
  2  3  1  0
  3  4  2  0
  4  5  1  0
  5  6  2  0
  6  7  1  0
  7  8  2  0
  9  8  1  6
  9 10  1  0
 10 11  1  0
 11 12  1  6
 12 13  2  0
 13 14  1  0
 14 15  2  0
 15 16  1  0
 15 17  1  0
 17 18  2  0
 11 19  1  0
 19 20  2  0
 20 21  1  0
 21 22  1  6
 21 23  1  0
 23 24  1  0
 24 25  2  0
 25 26  1  0
 26 27  2  0
 27 28  1  0
 28 29  1  6
 29 30  1  0
 30 31  1  0
 31 32  2  0
 32 33  1  0
 33 34  1  0
 34 35  1  0
 35 36  1  0
 36 37  1  0
 37 38  2  3
 38 39  1  0
 39 40  2  0
  8  3  1  0
 20  9  1  0
 18 12  1  0
 27 21  1  0
 28 23  1  0
 23 29  1  6
 32 26  1  0
M  END
>  <docking_score>  (1) 
-4.6799999999999997

$$$$
