
     RDKit          3D

 27 26  0  0  0  0  0  0  0  0999 V2000
   19.6308   -7.2099   -5.2038 C   0  0  0  0  0  0  0  0  0  0  0  0
   19.9425   -5.7617   -5.5648 C   0  0  0  0  0  0  0  0  0  0  0  0
   18.6678   -4.9891   -5.7841 C   0  0  0  0  0  0  0  0  0  0  0  0
   20.8029   -5.1508   -4.4850 C   0  0  0  0  0  0  0  0  0  0  0  0
   20.4330   -5.6907   -3.1226 C   0  0  0  0  0  0  0  0  0  0  0  0
   21.2351   -4.9093   -2.1050 C   0  0  0  0  0  0  0  0  0  0  0  0
   20.3030   -3.9627   -1.3179 C   0  0  1  0  0  0  0  0  0  0  0  0
   21.0364   -2.6817   -1.1208 C   0  0  0  0  0  0  0  0  0  0  0  0
   19.0464   -3.8925   -2.1237 C   0  0  0  0  0  3  0  0  0  0  0  0
   18.8165   -2.5246   -2.6803 C   0  0  0  0  0  0  0  0  0  0  0  0
   19.8788   -1.5228   -2.4162 C   0  0  0  0  0  0  0  0  0  0  0  0
   20.6147   -1.1504   -3.6590 C   0  0  1  0  0  0  0  0  0  0  0  0
   20.3966   -2.1626   -4.7351 C   0  0  0  0  0  0  0  0  0  0  0  0
   20.4266    0.2668   -4.0921 C   0  0  0  0  0  0  0  0  0  0  0  0
   19.8241    0.3475   -5.4857 C   0  0  2  0  0  0  0  0  0  0  0  0
   20.3043    1.6514   -6.0883 C   0  0  0  0  0  2  0  0  0  0  0  0
   18.3207    0.3995   -5.3266 C   0  0  0  0  0  0  0  0  0  0  0  0
   17.6609   -0.8451   -5.7185 C   0  0  0  0  0  0  0  0  0  0  0  0
   16.3676   -0.9151   -5.9473 C   0  0  0  0  0  0  0  0  0  0  0  0
   15.6185    0.2491   -5.8057 O   0  0  0  0  0  0  0  0  0  0  0  0
   15.7717   -2.1682   -6.3306 C   0  0  1  0  0  0  0  0  0  0  0  0
   16.4559   -3.0048   -7.1199 O   0  0  0  0  0  0  0  0  0  0  0  0
   14.7838   -2.6670   -5.5447 O   0  0  0  0  0  0  0  0  0  0  0  0
   15.0964   -3.7114   -4.8529 O   0  0  0  0  0  0  0  0  0  0  0  0
   14.3924   -4.8534   -5.2332 C   0  0  0  0  0  0  0  0  0  0  0  0
   15.2789   -6.0435   -5.3987 C   0  0  0  0  0  3  0  0  0  0  0  0
   14.6957   -7.2969   -4.7757 C   0  0  0  0  0  2  0  0  0  0  0  0
  1  2  1  0
  2  3  1  0
  2  4  1  0
  4  5  1  0
  5  6  1  0
  6  7  1  0
  7  8  1  6
  7  9  1  0
  9 10  1  0
 10 11  1  0
 11 12  1  0
 12 13  1  6
 12 14  1  0
 14 15  1  0
 15 16  1  1
 15 17  1  0
 17 18  1  0
 18 19  2  3
 19 20  1  0
 19 21  1  0
 21 22  1  1
 21 23  1  0
 23 24  1  0
 24 25  1  0
 25 26  1  0
 26 27  1  0
M  RAD  4   9   2  16   3  26   2  27   3
M  END
>  <docking_score>  (1) 
-2.6970000000000001

$$$$

     RDKit          3D

 27 26  0  0  0  0  0  0  0  0999 V2000
   16.7765   -6.0040   -6.7956 C   0  0  0  0  0  0  0  0  0  0  0  0
   17.9235   -6.4900   -7.6748 C   0  0  0  0  0  0  0  0  0  0  0  0
   18.2392   -5.4699   -8.7376 C   0  0  0  0  0  0  0  0  0  0  0  0
   19.1200   -6.8029   -6.8088 C   0  0  0  0  0  0  0  0  0  0  0  0
   20.3572   -7.0248   -7.6482 C   0  0  0  0  0  0  0  0  0  0  0  0
   20.7802   -5.6719   -8.1777 C   0  0  0  0  0  0  0  0  0  0  0  0
   21.3299   -4.8058   -7.0235 C   0  0  1  0  0  0  0  0  0  0  0  0
   21.2460   -3.3838   -7.4578 C   0  0  0  0  0  0  0  0  0  0  0  0
   20.5166   -5.1854   -5.8286 C   0  0  0  0  0  3  0  0  0  0  0  0
   21.0613   -4.5890   -4.5710 C   0  0  0  0  0  0  0  0  0  0  0  0
   20.5081   -5.1203   -3.3008 C   0  0  0  0  0  0  0  0  0  0  0  0
   19.0206   -5.0181   -3.2553 C   0  0  1  0  0  0  0  0  0  0  0  0
   18.3825   -6.3196   -3.6146 C   0  0  0  0  0  0  0  0  0  0  0  0
   18.4786   -4.3815   -2.0174 C   0  0  0  0  0  0  0  0  0  0  0  0
   18.2471   -2.8917   -2.2134 C   0  0  2  0  0  0  0  0  0  0  0  0
   19.0531   -2.1855   -1.1432 C   0  0  0  0  0  2  0  0  0  0  0  0
   16.7760   -2.6276   -1.9804 C   0  0  0  0  0  0  0  0  0  0  0  0
   16.0313   -2.4076   -3.2194 C   0  0  0  0  0  0  0  0  0  0  0  0
   15.2545   -1.3614   -3.3982 C   0  0  0  0  0  0  0  0  0  0  0  0
   15.1517   -0.4428   -2.3580 O   0  0  0  0  0  0  0  0  0  0  0  0
   14.5447   -1.1963   -4.6396 C   0  0  1  0  0  0  0  0  0  0  0  0
   14.7217   -0.0769   -5.3515 O   0  0  0  0  0  0  0  0  0  0  0  0
   14.1045   -2.3139   -5.2716 O   0  0  0  0  0  0  0  0  0  0  0  0
   14.8887   -2.7834   -6.1836 O   0  0  0  0  0  0  0  0  0  0  0  0
   14.4929   -4.0331   -6.6588 C   0  0  0  0  0  0  0  0  0  0  0  0
   14.4718   -4.0978   -8.1503 C   0  0  0  0  0  3  0  0  0  0  0  0
   13.8080   -5.3579   -8.6706 C   0  0  0  0  0  2  0  0  0  0  0  0
  1  2  1  0
  2  3  1  0
  2  4  1  0
  4  5  1  0
  5  6  1  0
  6  7  1  0
  7  8  1  6
  7  9  1  0
  9 10  1  0
 10 11  1  0
 11 12  1  0
 12 13  1  1
 12 14  1  0
 14 15  1  0
 15 16  1  1
 15 17  1  0
 17 18  1  0
 18 19  2  3
 19 20  1  0
 19 21  1  0
 21 22  1  6
 21 23  1  0
 23 24  1  0
 24 25  1  0
 25 26  1  0
 26 27  1  0
M  RAD  4   9   2  16   3  26   2  27   3
M  END
>  <docking_score>  (2) 
-2.6640000000000001

$$$$
