
     RDKit          3D

 27 27  0  0  0  0  0  0  0  0999 V2000
   15.1930    0.5112   -5.5537 C   0  0  0  0  0  0  0  0  0  0  0  0
   14.6188   -0.8625   -5.6833 C   0  0  0  0  0  0  0  0  0  0  0  0
   13.3937   -1.0631   -4.8173 C   0  0  0  0  0  0  0  0  0  0  0  0
   15.6460   -1.9527   -5.3710 C   0  0  0  0  0  0  0  0  0  0  0  0
   15.0406   -2.8694   -4.3419 C   0  0  0  0  0  0  0  0  0  0  0  0
   16.0711   -3.4687   -3.4154 C   0  0  0  0  0  0  0  0  0  0  0  0
   16.9103   -2.3673   -2.8557 C   0  0  1  0  0  0  0  0  0  0  0  0
   16.1116   -1.4318   -1.9725 C   0  0  0  0  0  0  0  0  0  0  0  0
   18.1066   -2.9247   -2.0933 C   0  0  0  0  0  3  0  0  0  0  0  0
   19.3706   -2.2143   -2.4944 C   0  0  0  0  0  0  0  0  0  0  0  0
   19.2517   -1.8041   -3.9410 C   0  0  0  0  0  0  0  0  0  0  0  0
   20.1637   -2.6806   -4.8115 C   0  0  0  0  0  0  0  0  0  0  0  0
   21.0824   -3.4980   -3.9358 C   0  0  0  0  0  0  0  0  0  0  0  0
   20.9109   -1.7884   -5.7564 C   0  0  0  0  0  0  0  0  0  0  0  0
   19.2461   -3.5513   -5.5921 C   0  0  0  0  0  0  0  0  0  0  0  0
   18.7468   -3.0438   -6.7157 C   0  0  0  0  0  0  0  0  0  0  0  0
   17.8210   -3.8056   -7.5862 C   0  0  0  0  0  0  0  0  0  0  0  0
   18.5253   -4.5780   -8.6711 C   0  0  0  0  0  0  0  0  0  0  0  0
   19.3988   -5.6144   -8.0486 C   0  0  2  0  0  0  0  0  0  0  0  0
   20.7446   -5.3635   -8.1300 O   0  0  0  0  0  0  0  0  0  0  0  0
   19.0011   -6.9985   -8.2797 C   0  0  0  0  0  0  0  0  0  0  0  0
   18.1916   -7.7439   -7.5901 C   0  0  0  0  0  0  0  0  0  0  0  0
   17.4450   -7.4040   -6.3792 C   0  0  0  0  0  0  0  0  0  0  0  0
   17.9915   -8.0657   -5.1214 C   0  0  0  0  0  0  0  0  0  0  0  0
   18.4949   -7.0428   -4.2613 O   0  0  0  0  0  0  0  0  0  0  0  0
   18.7535   -5.8489   -4.7239 C   0  0  0  0  0  0  0  0  0  0  0  0
   18.9775   -4.8187   -5.1024 C   0  0  0  0  0  0  0  0  0  0  0  0
  1  2  1  0
  2  3  1  0
  2  4  1  0
  4  5  1  0
  5  6  1  0
  6  7  1  0
  7  8  1  1
  7  9  1  0
  9 10  1  0
 10 11  1  0
 11 12  1  0
 12 13  1  0
 12 14  1  0
 12 15  1  0
 15 16  2  3
 16 17  1  0
 17 18  1  0
 18 19  1  0
 19 20  1  6
 19 21  1  0
 21 22  2  3
 22 23  1  0
 23 24  1  0
 24 25  1  0
 25 26  1  0
 26 27  3  0
 27 15  1  0
M  RAD  1   9   2
M  END
>  <docking_score>  (1) 
-3.6669999999999998

$$$$

     RDKit          3D

 27 27  0  0  0  0  0  0  0  0999 V2000
   19.8428   -9.5264   -8.7400 C   0  0  0  0  0  0  0  0  0  0  0  0
   18.3893   -9.2602   -8.5165 C   0  0  0  0  0  0  0  0  0  0  0  0
   18.0253   -7.8074   -8.7355 C   0  0  0  0  0  0  0  0  0  0  0  0
   17.9268   -9.6957   -7.1245 C   0  0  0  0  0  0  0  0  0  0  0  0
   17.5433   -8.4558   -6.3619 C   0  0  0  0  0  0  0  0  0  0  0  0
   18.7095   -7.8358   -5.6306 C   0  0  0  0  0  0  0  0  0  0  0  0
   18.2133   -6.6717   -4.8374 C   0  0  1  0  0  0  0  0  0  0  0  0
   16.7134   -6.4985   -4.9526 C   0  0  0  0  0  0  0  0  0  0  0  0
   18.6226   -6.7925   -3.3742 C   0  0  0  0  0  3  0  0  0  0  0  0
   18.6162   -5.4441   -2.7071 C   0  0  0  0  0  0  0  0  0  0  0  0
   19.7576   -4.6291   -3.2622 C   0  0  0  0  0  0  0  0  0  0  0  0
   19.6624   -3.1818   -2.7583 C   0  0  0  0  0  0  0  0  0  0  0  0
   21.0396   -2.6590   -2.4279 C   0  0  0  0  0  0  0  0  0  0  0  0
   18.7371   -3.1544   -1.5792 C   0  0  0  0  0  0  0  0  0  0  0  0
   19.0473   -2.4154   -3.8735 C   0  0  0  0  0  0  0  0  0  0  0  0
   19.8473   -1.6009   -4.5561 C   0  0  0  0  0  0  0  0  0  0  0  0
   19.3615   -0.7805   -5.6903 C   0  0  0  0  0  0  0  0  0  0  0  0
   19.5116   -1.4629   -7.0249 C   0  0  0  0  0  0  0  0  0  0  0  0
   18.6588   -2.6863   -7.0499 C   0  0  2  0  0  0  0  0  0  0  0  0
   19.3448   -3.8726   -6.9973 O   0  0  0  0  0  0  0  0  0  0  0  0
   17.5303   -2.6519   -7.9735 C   0  0  0  0  0  0  0  0  0  0  0  0
   16.3225   -2.2183   -7.7746 C   0  0  0  0  0  0  0  0  0  0  0  0
   15.7485   -1.6382   -6.5607 C   0  0  0  0  0  0  0  0  0  0  0  0
   14.7737   -2.5641   -5.8459 C   0  0  0  0  0  0  0  0  0  0  0  0
   15.3350   -2.9117   -4.5795 O   0  0  0  0  0  0  0  0  0  0  0  0
   16.6087   -2.7424   -4.3446 C   0  0  0  0  0  0  0  0  0  0  0  0
   17.6978   -2.6006   -4.1242 C   0  0  0  0  0  0  0  0  0  0  0  0
  1  2  1  0
  2  3  1  0
  2  4  1  0
  4  5  1  0
  5  6  1  0
  6  7  1  0
  7  8  1  1
  7  9  1  0
  9 10  1  0
 10 11  1  0
 11 12  1  0
 12 13  1  0
 12 14  1  0
 12 15  1  0
 15 16  2  3
 16 17  1  0
 17 18  1  0
 18 19  1  0
 19 20  1  6
 19 21  1  0
 21 22  2  3
 22 23  1  0
 23 24  1  0
 24 25  1  0
 25 26  1  0
 26 27  3  0
 27 15  1  0
M  RAD  1   9   2
M  END
>  <docking_score>  (2) 
-3.218

$$$$

     RDKit          3D

 27 27  0  0  0  0  0  0  0  0999 V2000
    5.1315    6.0630    4.8111 C   0  0  0  0  0  0  0  0  0  0  0  0
    3.6475    5.9545    4.9506 C   0  0  0  0  0  0  0  0  0  0  0  0
    2.9179    6.2954    3.6689 C   0  0  0  0  0  0  0  0  0  0  0  0
    3.1066    6.8218    6.0893 C   0  0  0  0  0  0  0  0  0  0  0  0
    2.5836    8.0968    5.4837 C   0  0  0  0  0  0  0  0  0  0  0  0
    2.8435    9.3048    6.3511 C   0  0  0  0  0  0  0  0  0  0  0  0
    4.2073    9.1821    6.9472 C   0  0  1  0  0  0  0  0  0  0  0  0
    5.2857    9.7027    6.0203 C   0  0  0  0  0  0  0  0  0  0  0  0
    4.2804    9.8886    8.2958 C   0  0  0  0  0  3  0  0  0  0  0  0
    4.1440    8.9004    9.4218 C   0  0  0  0  0  0  0  0  0  0  0  0
    3.6374    9.6296   10.6411 C   0  0  0  0  0  0  0  0  0  0  0  0
    4.4306    9.1924   11.8811 C   0  0  0  0  0  0  0  0  0  0  0  0
    5.4399    8.1359   11.5016 C   0  0  0  0  0  0  0  0  0  0  0  0
    3.4580    8.7150   12.9171 C   0  0  0  0  0  0  0  0  0  0  0  0
    5.0989   10.4243   12.3765 C   0  0  0  0  0  0  0  0  0  0  0  0
    6.0801   10.9187   11.6267 C   0  0  0  0  0  0  0  0  0  0  0  0
    6.8277   12.1406   12.0055 C   0  0  0  0  0  0  0  0  0  0  0  0
    6.2370   13.4013   11.4300 C   0  0  0  0  0  0  0  0  0  0  0  0
    4.8702   13.6044   11.9914 C   0  0  2  0  0  0  0  0  0  0  0  0
    3.8429   13.3884   11.1091 O   0  0  0  0  0  0  0  0  0  0  0  0
    4.7128   14.7570   12.8713 C   0  0  0  0  0  0  0  0  0  0  0  0
    4.8902   14.8373   14.1553 C   0  0  0  0  0  0  0  0  0  0  0  0
    5.3008   13.7879   15.0879 C   0  0  0  0  0  0  0  0  0  0  0  0
    4.1746   13.3000   15.9891 C   0  0  0  0  0  0  0  0  0  0  0  0
    3.9003   11.9369   15.6629 O   0  0  0  0  0  0  0  0  0  0  0  0
    4.3109   11.4250   14.5335 C   0  0  0  0  0  0  0  0  0  0  0  0
    4.6583   10.9683   13.5715 C   0  0  0  0  0  0  0  0  0  0  0  0
  1  2  1  0
  2  3  1  0
  2  4  1  0
  4  5  1  0
  5  6  1  0
  6  7  1  0
  7  8  1  6
  7  9  1  0
  9 10  1  0
 10 11  1  0
 11 12  1  0
 12 13  1  0
 12 14  1  0
 12 15  1  0
 15 16  2  3
 16 17  1  0
 17 18  1  0
 18 19  1  0
 19 20  1  6
 19 21  1  0
 21 22  2  3
 22 23  1  0
 23 24  1  0
 24 25  1  0
 25 26  1  0
 26 27  3  0
 27 15  1  0
M  RAD  1   9   2
M  END
>  <docking_score>  (3) 
-2.7599999999999998

$$$$
