
     RDKit          3D

 46 51  0  0  0  0  0  0  0  0999 V2000
    4.0506    8.5350    8.0468 C   0  0  0  0  0  0  0  0  0  0  0  0
    4.1992    8.5429    9.5393 C   0  0  0  0  0  3  0  0  0  0  0  0
    3.1944    9.2623   10.3894 C   0  0  0  0  0  0  0  0  0  0  0  0
    3.6561   10.1637   11.4958 C   0  0  0  0  0  0  0  0  0  0  0  0
    4.3817   11.4039   11.0650 C   0  0  0  0  0  0  0  0  0  0  0  0
    4.9615   12.4923   11.9188 C   0  0  0  0  0  0  0  0  0  0  0  0
    4.9591   12.6096   13.4142 C   0  0  0  0  0  0  0  0  0  0  0  0
    4.3762   11.6672   14.4252 C   0  0  0  0  0  0  0  0  0  0  0  0
    4.5931   12.1620   15.8245 C   0  0  0  0  0  0  0  0  0  0  0  0
    4.0855   11.3645   16.9892 C   0  0  0  0  0  0  0  0  0  0  0  0
    4.3024   11.8593   18.3885 O   0  0  0  0  0  0  0  0  0  0  0  0
    3.3610   10.0722   16.7544 C   0  0  0  0  0  0  0  0  0  0  0  0
    3.1442    9.5774   15.3551 C   0  0  0  0  0  0  0  0  0  0  0  0
    3.6517   10.3749   14.1904 C   0  0  0  0  0  0  0  0  0  0  0  0
    2.9168    9.0731   14.0671 C   0  0  0  0  0  0  0  0  0  0  0  0
    3.3313    9.7058   12.8869 C   0  0  0  0  0  0  0  0  0  0  0  0
    2.5876    8.4069   12.9874 C   0  0  0  0  0  0  0  0  0  0  0  0
    3.9980   10.8161   12.1302 C   0  0  0  0  0  0  0  0  0  0  0  0
    3.9906   10.6817   10.6362 O   0  0  0  0  0  0  0  0  0  0  0  0
    4.6712   12.0431   12.6699 C   0  0  0  0  0  0  0  0  0  0  0  0
    4.8439   12.4628   14.0996 C   0  0  0  0  0  0  0  0  0  0  0  0
    4.6047   12.0232   13.8641 C   0  0  0  0  0  0  0  0  0  0  0  0
    5.9730   14.5474   15.3343 C   0  0  0  0  0  0  0  0  0  0  0  0
    4.8580   12.4244   13.3223 C   0  0  0  0  0  0  0  0  0  0  0  0
    4.5184   11.8134   13.1492 C   0  0  0  0  0  0  0  0  0  0  0  0
    5.3650   13.0701   10.3016 C   0  0  0  0  0  0  0  0  0  0  0  0
    4.9275   13.5239    8.9404 C   0  0  0  0  0  0  0  0  0  0  0  0
    5.4284   12.8157    7.7167 C   0  0  0  0  0  0  0  0  0  0  0  0
    4.5020   12.5624    6.5646 C   0  0  0  0  0  0  0  0  0  0  0  0
    5.0543   12.1281    5.2394 C   0  0  0  0  0  0  0  0  0  0  0  0
    4.6857   10.7144    4.8993 C   0  0  0  0  0  0  0  0  0  0  0  0
    4.9558    9.7965    3.7441 C   0  0  0  0  0  0  0  0  0  0  0  0
    5.7064    9.9120    2.4505 C   0  0  0  0  0  0  0  0  0  0  0  0
    6.4978   10.9933    1.7763 C   0  0  0  0  0  0  0  0  0  0  0  0
    6.8664   12.4070    2.1164 N   0  0  0  0  0  0  0  0  0  0  0  0
    6.5963   13.3249    3.2716 C   0  0  0  0  0  0  0  0  0  0  0  0
    7.2907   14.6069    2.9194 C   0  0  0  0  0  0  0  0  0  0  0  0
    8.0413   14.7225    1.6258 C   0  0  0  0  0  0  0  0  0  0  0  0
    7.2347   15.7735    3.8606 C   0  0  0  0  0  0  0  0  0  0  0  0
    6.4841   15.6580    5.1542 C   0  0  0  0  0  0  0  0  0  0  0  0
    5.7896   14.3759    5.5065 C   0  0  0  0  0  0  0  0  0  0  0  0
    5.8457   13.2094    4.5652 C   0  0  0  0  0  0  0  0  0  0  0  0
    5.1497   13.2795    5.8921 C   0  0  0  0  0  0  0  0  0  0  0  0
    3.6621   13.1034    5.9689 N   0  0  0  0  0  0  0  0  0  0  0  0
    2.7525   14.2378    5.6007 C   0  0  0  0  0  0  0  0  0  0  0  0
    2.2627   14.3789    4.1900 C   0  0  0  0  0  0  0  0  0  0  0  0
  1  2  1  0
  2  3  1  0
  3  4  1  0
  4  5  1  0
  5  6  1  0
  6  7  1  0
  7  8  1  0
  8  9  2  0
  9 10  1  0
 10 11  2  0
 10 12  1  0
 12 13  2  0
 13 14  1  0
 14 15  1  0
 14 16  1  0
 16 17  1  0
 16 18  1  0
 18 19  1  0
 18 20  1  0
 20 21  1  0
 21 22  1  0
 22 23  1  0
 22 24  1  0
 24 25  1  0
 25 26  1  0
 26 27  1  0
 27 28  1  0
 28 29  1  0
 29 30  1  0
 30 31  1  0
 31 32  1  0
 32 33  1  0
 33 34  1  0
 34 35  1  0
 35 36  1  0
 36 37  1  0
 37 38  1  0
 37 39  1  0
 39 40  1  0
 40 41  1  0
 41 42  1  0
 42 43  1  0
 43 44  1  0
 44 45  1  0
 45 46  1  0
 16  4  1  0
 14  8  1  0
 21  9  1  0
 25 20  1  0
 42 30  1  0
 42 36  1  0
M  RAD  1   2   2
M  END
>  <docking_score>  (1) 
-5.5590000000000002

$$$$

     RDKit          3D

 46 51  0  0  0  0  0  0  0  0999 V2000
    6.7671   14.9361    7.9162 C   0  0  0  0  0  0  0  0  0  0  0  0
    6.3423   13.8165    7.0128 C   0  0  0  0  0  3  0  0  0  0  0  0
    4.9083   13.3776    6.9858 C   0  0  0  0  0  0  0  0  0  0  0  0
    4.5717   11.9233    6.8385 C   0  0  0  0  0  0  0  0  0  0  0  0
    4.5373   11.1310    8.1118 C   0  0  0  0  0  0  0  0  0  0  0  0
    4.2367    9.6734    8.2985 C   0  0  0  0  0  0  0  0  0  0  0  0
    3.8963    8.6479    7.2580 C   0  0  0  0  0  0  0  0  0  0  0  0
    3.7724    8.8268    5.7739 C   0  0  0  0  0  0  0  0  0  0  0  0
    3.4138    7.5384    5.0946 C   0  0  0  0  0  0  0  0  0  0  0  0
    3.2411    7.4986    3.6051 C   0  0  0  0  0  0  0  0  0  0  0  0
    2.8825    6.2102    2.9258 O   0  0  0  0  0  0  0  0  0  0  0  0
    3.4270    8.7472    2.7949 C   0  0  0  0  0  0  0  0  0  0  0  0
    3.7856   10.0356    3.4742 C   0  0  0  0  0  0  0  0  0  0  0  0
    3.9583   10.0755    4.9637 C   0  0  0  0  0  0  0  0  0  0  0  0
    4.1208   11.2632    4.0622 C   0  0  0  0  0  0  0  0  0  0  0  0
    4.3140   11.4534    5.4374 C   0  0  0  0  0  0  0  0  0  0  0  0
    4.4270   12.5001    4.3690 C   0  0  0  0  0  0  0  0  0  0  0  0
    4.3646   10.9737    6.8578 C   0  0  0  0  0  0  0  0  0  0  0  0
    4.7065   12.0129    7.8840 O   0  0  0  0  0  0  0  0  0  0  0  0
    4.1186    9.5921    7.3876 C   0  0  0  0  0  0  0  0  0  0  0  0
    3.7611    8.3491    6.6280 C   0  0  0  0  0  0  0  0  0  0  0  0
    3.8585    8.8701    6.4700 C   0  0  0  0  0  0  0  0  0  0  0  0
    3.2733    5.8051    7.2880 C   0  0  0  0  0  0  0  0  0  0  0  0
    3.9357    8.8629    7.1860 C   0  0  0  0  0  0  0  0  0  0  0  0
    4.0373    9.4916    6.8499 C   0  0  0  0  0  0  0  0  0  0  0  0
    4.5316   10.1809    9.9621 C   0  0  0  0  0  0  0  0  0  0  0  0
    4.4381   11.1970   11.0615 C   0  0  0  0  0  0  0  0  0  0  0  0
    5.6781   11.6421   11.7788 C   0  0  0  0  0  0  0  0  0  0  0  0
    6.3557   12.9203   11.3827 C   0  0  0  0  0  0  0  0  0  0  0  0
    7.5249   13.4261   12.1746 C   0  0  0  0  0  0  0  0  0  0  0  0
    8.8173   13.3219   11.4204 C   0  0  0  0  0  0  0  0  0  0  0  0
   10.2475   13.6659   11.7141 C   0  0  0  0  0  0  0  0  0  0  0  0
   10.9776   14.2565   12.8838 C   0  0  0  0  0  0  0  0  0  0  0  0
   10.5801   14.7478   14.2442 C   0  0  0  0  0  0  0  0  0  0  0  0
    9.2876   14.8519   14.9984 N   0  0  0  0  0  0  0  0  0  0  0  0
    7.8575   14.5080   14.7046 C   0  0  0  0  0  0  0  0  0  0  0  0
    7.1033   14.8935   15.9426 C   0  0  0  0  0  0  0  0  0  0  0  0
    7.8334   15.4841   17.1122 C   0  0  0  0  0  0  0  0  0  0  0  0
    5.6190   14.6884   16.0110 C   0  0  0  0  0  0  0  0  0  0  0  0
    4.8888   14.0978   14.8413 C   0  0  0  0  0  0  0  0  0  0  0  0
    5.6430   13.7123   13.6033 C   0  0  0  0  0  0  0  0  0  0  0  0
    7.1273   13.9174   13.5350 C   0  0  0  0  0  0  0  0  0  0  0  0
    6.2347   13.3454   12.4738 C   0  0  0  0  0  0  0  0  0  0  0  0
    5.9147   14.1501   11.2491 N   0  0  0  0  0  0  0  0  0  0  0  0
    4.7630   15.1110   11.2627 C   0  0  0  0  0  0  0  0  0  0  0  0
    3.7607   15.0964   10.1468 C   0  0  0  0  0  0  0  0  0  0  0  0
  1  2  1  0
  2  3  1  0
  3  4  1  0
  4  5  1  0
  5  6  1  0
  6  7  1  0
  7  8  1  0
  8  9  2  0
  9 10  1  0
 10 11  2  0
 10 12  1  0
 12 13  2  0
 13 14  1  0
 14 15  1  0
 14 16  1  0
 16 17  1  0
 16 18  1  0
 18 19  1  0
 18 20  1  0
 20 21  1  0
 21 22  1  0
 22 23  1  0
 22 24  1  0
 24 25  1  0
 25 26  1  0
 26 27  1  0
 27 28  1  0
 28 29  1  0
 29 30  1  0
 30 31  1  0
 31 32  1  0
 32 33  1  0
 33 34  1  0
 34 35  1  0
 35 36  1  0
 36 37  1  0
 37 38  1  0
 37 39  1  0
 39 40  1  0
 40 41  1  0
 41 42  1  0
 42 43  1  0
 43 44  1  0
 44 45  1  0
 45 46  1  0
 16  4  1  0
 14  8  1  0
 21  9  1  0
 25 20  1  0
 42 30  1  0
 42 36  1  0
M  RAD  1   2   2
M  END
>  <docking_score>  (2) 
-5.4569999999999999

$$$$
