
     RDKit          3D

 35 37  0  0  0  0  0  0  0  0999 V2000
    3.5022    9.7891    4.8172 C   0  0  0  0  0  0  0  0  0  0  0  0
    4.0219   11.0797    4.3084 C   0  0  2  0  0  0  0  0  0  0  0  0
    4.2568   11.0984    2.8326 C   0  0  0  0  0  0  0  0  0  0  0  0
    5.2292   11.5432    5.0594 C   0  0  0  0  0  0  0  0  0  0  0  0
    6.4280   11.6686    4.1465 C   0  0  0  0  0  0  0  0  0  0  0  0
    6.2697   12.8117    3.1847 C   0  0  0  0  0  0  0  0  0  0  0  0
    7.0325   14.0110    3.6819 C   0  0  1  0  0  0  0  0  0  0  0  0
    6.1980   15.2612    3.4818 C   0  0  0  0  0  0  0  0  0  0  0  0
    7.2308   13.8523    5.1748 C   0  0  0  0  0  3  0  0  0  0  0  0
    8.1179   14.9964    5.6320 C   0  0  0  0  0  0  0  0  0  0  0  0
    7.5906   15.5354    6.9177 C   0  0  0  0  0  0  0  0  0  0  0  0
    6.9018   14.7035    7.6872 C   0  0  0  0  0  0  0  0  0  0  0  0
    6.3481   15.1719    8.9793 C   0  0  1  0  0  0  0  0  0  0  0  0
    4.6520   15.9558    8.7236 P   0  0  0  0  0  0  0  0  0  0  0  0
    3.7206   14.4472    9.3812 C   0  0  2  0  0  0  0  0  0  0  0  0
    3.1648   14.8040   10.7469 C   0  0  0  0  0  0  0  0  0  0  0  0
    3.6334   16.0745   11.0755 O   0  0  0  0  0  0  0  0  0  0  0  0
    6.0060   14.1372    9.8275 O   0  0  0  0  0  0  0  0  0  0  0  0
    4.8820   13.5294    9.5067 C   0  0  2  0  0  0  0  0  0  0  0  0
    4.8907   12.3452    8.6353 C   0  0  0  0  0  0  0  0  0  0  0  0
    3.6105   11.5416    8.7263 C   0  0  2  0  0  0  0  0  0  0  0  0
    2.9342   11.6516   10.0509 C   0  0  0  0  0  0  0  0  0  0  0  0
    3.4433   10.6780   11.0530 C   0  0  0  0  0  0  0  0  0  0  0  0
    4.3242   11.0319   11.9935 C   0  0  0  0  0  0  0  0  0  0  0  0
    4.7674    9.9825   12.9443 C   0  0  0  0  0  0  0  0  0  0  0  0
    3.9416   10.1151    8.3477 C   0  0  0  0  0  0  0  0  0  0  0  0
    4.6208   10.1900    6.9740 C   0  0  0  0  0  0  0  0  0  0  0  0
    3.7860    9.4009    6.0344 C   0  0  0  0  0  0  0  0  0  0  0  0
    3.1344    8.0702    6.2780 C   0  0  0  0  0  0  0  0  0  0  0  0
    2.2581    7.9178    5.2286 O   0  0  0  0  0  0  0  0  0  0  0  0
    2.6525    8.7424    4.1980 C   0  0  2  0  0  0  0  0  0  0  0  0
    3.3920    7.9958    3.1181 C   0  0  2  0  0  0  0  0  0  0  0  0
    2.4830    7.7453    1.9352 C   0  0  0  0  0  0  0  0  0  0  0  0
    3.9578    6.6819    3.5583 C   0  0  0  0  0  3  0  0  0  0  0  0
    3.9401    5.6244    2.4777 C   0  0  0  0  0  2  0  0  0  0  0  0
  1  2  1  0
  2  3  1  6
  2  4  1  0
  4  5  1  0
  5  6  1  0
  6  7  1  0
  7  8  1  1
  7  9  1  0
  9 10  1  0
 10 11  1  0
 11 12  2  3
 12 13  1  0
 13 14  1  6
 14 15  1  0
 15 16  1  1
 16 17  1  0
 13 18  1  0
 18 19  1  0
 19 20  1  6
 20 21  1  0
 21 22  1  1
 22 23  1  0
 23 24  2  3
 24 25  1  0
 21 26  1  0
 26 27  1  0
 27 28  1  0
 28 29  1  0
 29 30  1  0
 31 30  1  1
 31 32  1  0
 32 33  1  6
 32 34  1  0
 34 35  1  0
  1 28  2  0
 31  1  1  0
 19 15  1  0
M  RAD  3   9   2  34   2  35   3
M  END
>  <docking_score>  (1) 
-3.2080000000000002

$$$$

     RDKit          3D

 35 37  0  0  0  0  0  0  0  0999 V2000
    5.9224   13.1909    5.0650 C   0  0  0  0  0  0  0  0  0  0  0  0
    5.9589   11.7106    5.0186 C   0  0  2  0  0  0  0  0  0  0  0  0
    6.4483   11.1573    3.7194 C   0  0  0  0  0  0  0  0  0  0  0  0
    4.6551   11.0961    5.4173 C   0  0  0  0  0  0  0  0  0  0  0  0
    4.0702   10.2729    4.2920 C   0  0  0  0  0  0  0  0  0  0  0  0
    4.8752    9.0289    4.0445 C   0  0  0  0  0  0  0  0  0  0  0  0
    4.2149    7.8492    4.7078 C   0  0  1  0  0  0  0  0  0  0  0  0
    5.2688    6.9884    5.3769 C   0  0  0  0  0  0  0  0  0  0  0  0
    3.3166    8.3744    5.8080 C   0  0  0  0  0  3  0  0  0  0  0  0
    2.5571    7.1863    6.3704 C   0  0  0  0  0  0  0  0  0  0  0  0
    2.5160    7.2957    7.8563 C   0  0  0  0  0  0  0  0  0  0  0  0
    2.5919    8.5129    8.3772 C   0  0  0  0  0  0  0  0  0  0  0  0
    2.5570    8.6961    9.8471 C   0  0  1  0  0  0  0  0  0  0  0  0
    4.2913    8.5404   10.5716 P   0  0  0  0  0  0  0  0  0  0  0  0
    4.4989   10.4069   10.7920 C   0  0  2  0  0  0  0  0  0  0  0  0
    4.4100   10.7117   12.2755 C   0  0  0  0  0  0  0  0  0  0  0  0
    4.5627    9.5099   12.9640 O   0  0  0  0  0  0  0  0  0  0  0  0
    2.2580    9.9907   10.2234 O   0  0  0  0  0  0  0  0  0  0  0  0
    3.2613   10.8340   10.0898 C   0  0  2  0  0  0  0  0  0  0  0  0
    3.4330   11.6069    8.8510 C   0  0  0  0  0  0  0  0  0  0  0  0
    4.3415   12.8052    9.0293 C   0  0  2  0  0  0  0  0  0  0  0  0
    4.3285   13.3583   10.4143 C   0  0  0  0  0  0  0  0  0  0  0  0
    5.5461   14.1458   10.7436 C   0  0  0  0  0  0  0  0  0  0  0  0
    6.5501   14.2864    9.8729 C   0  0  0  0  0  0  0  0  0  0  0  0
    7.7193   15.0929   10.3022 C   0  0  0  0  0  0  0  0  0  0  0  0
    3.9583   13.8260    7.9810 C   0  0  0  0  0  0  0  0  0  0  0  0
    4.0273   13.0939    6.6343 C   0  0  0  0  0  0  0  0  0  0  0  0
    5.0349   13.8029    5.8070 C   0  0  0  0  0  0  0  0  0  0  0  0
    5.2283   15.2850    5.6624 C   0  0  0  0  0  0  0  0  0  0  0  0
    6.4452   15.4144    5.0342 O   0  0  0  0  0  0  0  0  0  0  0  0
    6.7439   14.2302    4.3972 C   0  0  2  0  0  0  0  0  0  0  0  0
    6.4660   14.2898    2.9175 C   0  0  2  0  0  0  0  0  0  0  0  0
    6.1650   12.9072    2.3828 C   0  0  0  0  0  0  0  0  0  0  0  0
    7.5821   14.8709    2.1069 C   0  0  0  0  0  3  0  0  0  0  0  0
    7.9699   14.0218    0.9174 C   0  0  0  0  0  2  0  0  0  0  0  0
  1  2  1  0
  2  3  1  6
  2  4  1  0
  4  5  1  0
  5  6  1  0
  6  7  1  0
  7  8  1  1
  7  9  1  0
  9 10  1  0
 10 11  1  0
 11 12  2  3
 12 13  1  0
 13 14  1  6
 14 15  1  0
 15 16  1  1
 16 17  1  0
 13 18  1  0
 18 19  1  0
 19 20  1  6
 20 21  1  0
 21 22  1  1
 22 23  1  0
 23 24  2  3
 24 25  1  0
 21 26  1  0
 26 27  1  0
 27 28  1  0
 28 29  1  0
 29 30  1  0
 31 30  1  1
 31 32  1  0
 32 33  1  6
 32 34  1  0
 34 35  1  0
  1 28  2  0
 31  1  1  0
 19 15  1  0
M  RAD  3   9   2  34   2  35   3
M  END
>  <docking_score>  (2) 
-2.4369999999999998

$$$$

     RDKit          3D

 35 37  0  0  0  0  0  0  0  0999 V2000
    3.7699    9.2965    5.2548 C   0  0  0  0  0  0  0  0  0  0  0  0
    4.2568   10.5144    4.5660 C   0  0  2  0  0  0  0  0  0  0  0  0
    4.5697   10.3078    3.1194 C   0  0  0  0  0  0  0  0  0  0  0  0
    5.3996   11.1570    5.2855 C   0  0  0  0  0  0  0  0  0  0  0  0
    6.6388   11.1979    4.4201 C   0  0  0  0  0  0  0  0  0  0  0  0
    6.4805   12.1610    3.2781 C   0  0  0  0  0  0  0  0  0  0  0  0
    7.1599   13.4640    3.6068 C   0  0  1  0  0  0  0  0  0  0  0  0
    6.2814   14.6190    3.1670 C   0  0  0  0  0  0  0  0  0  0  0  0
    7.2847   13.5587    5.1130 C   0  0  0  0  0  3  0  0  0  0  0  0
    8.0928   14.8075    5.4170 C   0  0  0  0  0  0  0  0  0  0  0  0
    7.4730   15.5175    6.5717 C   0  0  0  0  0  0  0  0  0  0  0  0
    6.7824   14.7846    7.4347 C   0  0  0  0  0  0  0  0  0  0  0  0
    6.1392   15.4245    8.6060 C   0  0  1  0  0  0  0  0  0  0  0  0
    4.4253   16.0647    8.1484 P   0  0  0  0  0  0  0  0  0  0  0  0
    3.5297   14.6339    9.0005 C   0  0  2  0  0  0  0  0  0  0  0  0
    2.8854   15.1756   10.2627 C   0  0  0  0  0  0  0  0  0  0  0  0
    3.8915   15.3452   11.2117 O   0  0  0  0  0  0  0  0  0  0  0  0
    5.7994   14.5231    9.5956 O   0  0  0  0  0  0  0  0  0  0  0  0
    4.7233   13.8120    9.3275 C   0  0  2  0  0  0  0  0  0  0  0  0
    4.8328   12.5052    8.6628 C   0  0  0  0  0  0  0  0  0  0  0  0
    3.5876   11.6591    8.8254 C   0  0  2  0  0  0  0  0  0  0  0  0
    2.8366   11.9445   10.0819 C   0  0  0  0  0  0  0  0  0  0  0  0
    3.6114   11.6343   11.3125 C   0  0  0  0  0  0  0  0  0  0  0  0
    3.0117   11.4329   12.4897 C   0  0  0  0  0  0  0  0  0  0  0  0
    3.8784   11.1297   13.6553 C   0  0  0  0  0  0  0  0  0  0  0  0
    4.0033   10.2101    8.7008 C   0  0  0  0  0  0  0  0  0  0  0  0
    4.7513   10.0992    7.3657 C   0  0  0  0  0  0  0  0  0  0  0  0
    4.0051    9.1253    6.5308 C   0  0  0  0  0  0  0  0  0  0  0  0
    3.4027    7.8181    6.9587 C   0  0  0  0  0  0  0  0  0  0  0  0
    2.5920    7.4519    5.9094 O   0  0  0  0  0  0  0  0  0  0  0  0
    3.0033    8.1196    4.7770 C   0  0  2  0  0  0  0  0  0  0  0  0
    3.8331    7.2497    3.8686 C   0  0  2  0  0  0  0  0  0  0  0  0
    5.2391    7.7965    3.7570 C   0  0  0  0  0  0  0  0  0  0  0  0
    3.2787    7.1023    2.4861 C   0  0  0  0  0  3  0  0  0  0  0  0
    2.2576    8.1588    2.1293 C   0  0  0  0  0  2  0  0  0  0  0  0
  1  2  1  0
  2  3  1  6
  2  4  1  0
  4  5  1  0
  5  6  1  0
  6  7  1  0
  7  8  1  1
  7  9  1  0
  9 10  1  0
 10 11  1  0
 11 12  2  3
 12 13  1  0
 13 14  1  6
 14 15  1  0
 15 16  1  1
 16 17  1  0
 13 18  1  0
 18 19  1  0
 19 20  1  6
 20 21  1  0
 21 22  1  1
 22 23  1  0
 23 24  2  3
 24 25  1  0
 21 26  1  0
 26 27  1  0
 27 28  1  0
 28 29  1  0
 29 30  1  0
 31 30  1  1
 31 32  1  0
 32 33  1  6
 32 34  1  0
 34 35  1  0
  1 28  2  0
 31  1  1  0
 19 15  1  0
M  RAD  3   9   2  34   2  35   3
M  END
>  <docking_score>  (3) 
-1.857

$$$$
