
     RDKit          3D

 23 25  0  0  0  0  0  0  0  0999 V2000
   16.5967   -2.9244   -8.1802 C   0  0  0  0  0  0  0  0  0  0  0  0
   16.4845   -1.8930   -7.0694 C   0  0  1  0  0  0  0  0  0  0  0  0
   15.0257   -1.7125   -6.7714 C   0  0  0  0  0  0  0  0  0  0  0  0
   14.5940   -1.8817   -5.3808 C   0  0  2  0  0  0  0  0  0  0  0  0
   14.6608   -0.6593   -4.7099 O   0  0  0  0  0  0  0  0  0  0  0  0
   15.2748   -2.9299   -4.5586 C   0  0  2  0  0  0  0  0  0  0  0  0
   15.5231   -2.5032   -3.2935 O   0  0  0  0  0  0  0  0  0  0  0  0
   16.4312   -3.5215   -5.2866 C   0  0  1  0  0  0  0  0  0  0  0  0
   16.0656   -4.4390   -6.2575 O   0  0  0  0  0  0  0  0  0  0  0  0
   17.1733   -2.3303   -5.8850 C   0  0  1  0  0  0  0  0  0  0  0  0
   18.5548   -2.6696   -5.9262 N   0  0  0  0  0  0  0  0  0  0  0  0
   18.7642   -3.2093   -4.6320 C   0  0  1  0  0  0  0  0  0  0  0  0
   18.8826   -4.6856   -4.5259 C   0  0  0  0  0  0  0  0  0  0  0  0
   18.2824   -4.9637   -3.1310 C   0  0  0  0  0  3  0  0  0  0  0  0
   18.2722   -6.3361   -2.9506 O   0  0  0  0  0  0  0  0  0  0  0  0
   16.9042   -4.4478   -3.1471 C   0  0  0  0  0  3  0  0  0  0  0  0
   16.6293   -3.1053   -2.6720 C   0  0  1  0  0  0  0  0  0  0  0  0
   17.7003   -2.1036   -2.6171 C   0  0  1  0  0  0  0  0  0  0  0  0
   17.3887   -1.1522   -1.6415 O   0  0  0  0  0  0  0  0  0  0  0  0
   19.0865   -2.5735   -2.3929 C   0  0  2  0  0  0  0  0  0  0  0  0
   19.8076   -1.6737   -1.6081 O   0  0  0  0  0  0  0  0  0  0  0  0
   19.7765   -2.5462   -3.7752 C   0  0  1  0  0  0  0  0  0  0  0  0
   20.8971   -3.3999   -3.6966 O   0  0  0  0  0  0  0  0  0  0  0  0
  2  1  1  6
  2  3  1  0
  3  4  1  0
  4  5  1  1
  4  6  1  0
  6  7  1  1
  6  8  1  0
  8  9  1  6
  8 10  1  0
 10 11  1  6
 11 12  1  0
 12 13  1  6
 13 14  1  0
 14 15  1  0
 14 16  1  0
 17 16  1  6
 17 18  1  0
 18 19  1  1
 18 20  1  0
 20 21  1  1
 20 22  1  0
 22 23  1  1
 10  2  1  0
 17  7  1  0
 22 12  1  0
M  RAD  2  14   2  16   2
M  END
>  <docking_score>  (1) 
-6.04

$$$$

     RDKit          3D

 23 25  0  0  0  0  0  0  0  0999 V2000
   17.1910   -2.4341   -8.3236 C   0  0  0  0  0  0  0  0  0  0  0  0
   16.8220   -1.9243   -6.9401 C   0  0  1  0  0  0  0  0  0  0  0  0
   15.3248   -1.8895   -6.8601 C   0  0  0  0  0  0  0  0  0  0  0  0
   14.6911   -2.5964   -5.7432 C   0  0  2  0  0  0  0  0  0  0  0  0
   14.5536   -1.7362   -4.6524 O   0  0  0  0  0  0  0  0  0  0  0  0
   15.3120   -3.8770   -5.2821 C   0  0  2  0  0  0  0  0  0  0  0  0
   15.3208   -3.9804   -3.9281 O   0  0  0  0  0  0  0  0  0  0  0  0
   16.6127   -4.1234   -5.9639 C   0  0  1  0  0  0  0  0  0  0  0  0
   16.4803   -4.5881   -7.2618 O   0  0  0  0  0  0  0  0  0  0  0  0
   17.3450   -2.7858   -5.9142 C   0  0  1  0  0  0  0  0  0  0  0  0
   18.7377   -3.0683   -5.8367 N   0  0  0  0  0  0  0  0  0  0  0  0
   18.7794   -4.0719   -4.8361 C   0  0  1  0  0  0  0  0  0  0  0  0
   18.9949   -5.4696   -5.2884 C   0  0  0  0  0  0  0  0  0  0  0  0
   18.2033   -6.2799   -4.2396 C   0  0  0  0  0  3  0  0  0  0  0  0
   18.2724   -7.6125   -4.6075 O   0  0  0  0  0  0  0  0  0  0  0  0
   16.8092   -5.8124   -4.3002 C   0  0  0  0  0  3  0  0  0  0  0  0
   16.3573   -4.7680   -3.4011 C   0  0  1  0  0  0  0  0  0  0  0  0
   17.3237   -3.8586   -2.7745 C   0  0  1  0  0  0  0  0  0  0  0  0
   16.7864   -3.3709   -1.5797 O   0  0  0  0  0  0  0  0  0  0  0  0
   18.6889   -4.3655   -2.5064 C   0  0  2  0  0  0  0  0  0  0  0  0
   19.2023   -3.8404   -1.3206 O   0  0  0  0  0  0  0  0  0  0  0  0
   19.5865   -3.7898   -3.6246 C   0  0  1  0  0  0  0  0  0  0  0  0
   20.7437   -4.5949   -3.6836 O   0  0  0  0  0  0  0  0  0  0  0  0
  2  1  1  6
  2  3  1  0
  3  4  1  0
  4  5  1  1
  4  6  1  0
  6  7  1  1
  6  8  1  0
  8  9  1  6
  8 10  1  0
 10 11  1  6
 11 12  1  0
 12 13  1  6
 13 14  1  0
 14 15  1  0
 14 16  1  0
 17 16  1  6
 17 18  1  0
 18 19  1  1
 18 20  1  0
 20 21  1  1
 20 22  1  0
 22 23  1  6
 10  2  1  0
 17  7  1  0
 22 12  1  0
M  RAD  2  14   2  16   2
M  END
>  <docking_score>  (2) 
-5.9390000000000001

$$$$

     RDKit          3D

 23 25  0  0  0  0  0  0  0  0999 V2000
   20.0559   -1.9576   -3.2126 C   0  0  0  0  0  0  0  0  0  0  0  0
   19.5263   -3.3263   -3.6080 C   0  0  1  0  0  0  0  0  0  0  0  0
   19.0968   -4.0209   -2.3501 C   0  0  0  0  0  0  0  0  0  0  0  0
   17.7277   -4.5423   -2.2997 C   0  0  2  0  0  0  0  0  0  0  0  0
   17.7003   -5.8540   -2.7765 O   0  0  0  0  0  0  0  0  0  0  0  0
   16.6521   -3.7524   -2.9759 C   0  0  2  0  0  0  0  0  0  0  0  0
   15.7771   -4.5494   -3.6418 O   0  0  0  0  0  0  0  0  0  0  0  0
   17.2221   -2.6171   -3.7527 C   0  0  1  0  0  0  0  0  0  0  0  0
   17.5986   -1.5403   -2.9673 O   0  0  0  0  0  0  0  0  0  0  0  0
   18.4092   -3.2098   -4.5062 C   0  0  1  0  0  0  0  0  0  0  0  0
   18.5289   -2.4993   -5.7334 N   0  0  0  0  0  0  0  0  0  0  0  0
   17.1874   -2.4744   -6.1915 C   0  0  1  0  0  0  0  0  0  0  0  0
   16.4510   -1.1919   -6.0586 C   0  0  0  0  0  0  0  0  0  0  0  0
   15.0004   -1.6683   -5.8304 C   0  0  0  0  0  3  0  0  0  0  0  0
   14.2237   -0.5427   -5.6165 O   0  0  0  0  0  0  0  0  0  0  0  0
   15.0108   -2.5097   -4.6231 C   0  0  0  0  0  3  0  0  0  0  0  0
   15.1506   -3.9481   -4.7457 C   0  0  1  0  0  0  0  0  0  0  0  0
   15.7358   -4.5364   -5.9560 C   0  0  1  0  0  0  0  0  0  0  0  0
   15.2549   -5.8398   -6.1110 O   0  0  0  0  0  0  0  0  0  0  0  0
   15.5651   -3.8144   -7.2375 C   0  0  2  0  0  0  0  0  0  0  0  0
   15.4047   -4.7005   -8.3027 O   0  0  0  0  0  0  0  0  0  0  0  0
   16.9073   -3.0980   -7.5072 C   0  0  1  0  0  0  0  0  0  0  0  0
   16.6462   -2.0600   -8.4265 O   0  0  0  0  0  0  0  0  0  0  0  0
  2  1  1  1
  2  3  1  0
  3  4  1  0
  4  5  1  6
  4  6  1  0
  6  7  1  6
  6  8  1  0
  8  9  1  1
  8 10  1  0
 10 11  1  6
 11 12  1  0
 12 13  1  6
 13 14  1  0
 14 15  1  0
 14 16  1  0
 17 16  1  6
 17 18  1  0
 18 19  1  6
 18 20  1  0
 20 21  1  6
 20 22  1  0
 22 23  1  6
 10  2  1  0
 17  7  1  0
 22 12  1  0
M  RAD  2  14   2  16   2
M  END
>  <docking_score>  (3) 
-5.9000000000000004

$$$$
