
     RDKit          3D

 40 42  0  0  0  0  0  0  0  0999 V2000
   18.7907   -6.6782   -8.6038 C   0  0  0  0  0  0  0  0  0  0  0  0
   19.7497   -7.3227   -7.7254 N   0  0  0  0  0  0  0  0  0  0  0  0
   20.7155   -8.1298   -8.0976 N   0  0  0  0  0  0  0  0  0  0  0  0
   21.3619   -8.5463   -7.0483 N   0  0  0  0  0  0  0  0  0  0  0  0
   20.8106   -8.0038   -5.9799 N   0  0  0  0  0  0  0  0  0  0  0  0
   19.7861   -7.2230   -6.3877 C   0  0  0  0  0  0  0  0  0  0  0  0
   18.9594   -6.4382   -5.4945 C   0  0  0  0  0  0  0  0  0  0  0  0
   19.3982   -5.0778   -5.1873 C   0  0  0  0  0  0  0  0  0  0  0  0
   20.4901   -4.8237   -4.5144 C   0  0  0  0  0  0  0  0  0  0  0  0
   20.9371   -3.4295   -4.2024 C   0  0  1  0  0  0  0  0  0  0  0  0
   21.3796   -2.8011   -5.3604 O   0  0  0  0  0  0  0  0  0  0  0  0
   19.7305   -2.6703   -3.6613 C   0  0  0  0  0  0  0  0  0  0  0  0
   20.1510   -2.0017   -2.3596 C   0  0  1  0  0  0  0  0  0  0  0  0
   20.5389   -3.0032   -1.4599 O   0  0  0  0  0  0  0  0  0  0  0  0
   21.3711   -1.1613   -2.6838 C   0  0  0  0  0  0  0  0  0  0  0  0
   20.9651    0.2027   -3.1039 C   0  0  0  0  0  0  0  0  0  0  0  0
   21.3310    1.1887   -2.4078 O   0  0  0  0  0  0  0  0  0  0  0  0
   20.1969    0.3582   -4.2466 O   0  0  0  0  0  1  0  0  0  0  0  0
   17.8504   -6.8972   -4.9682 C   0  0  0  0  0  0  0  0  0  0  0  0
   17.3320   -8.2228   -5.2267 C   0  0  0  0  0  0  0  0  0  0  0  0
   15.9560   -8.3600   -5.4636 C   0  0  0  0  0  0  0  0  0  0  0  0
   15.4218   -9.6033   -5.7147 C   0  0  0  0  0  0  0  0  0  0  0  0
   16.1861  -10.7561   -5.7474 C   0  0  0  0  0  0  0  0  0  0  0  0
   15.5819  -11.9428   -6.0015 F   0  0  0  0  0  0  0  0  0  0  0  0
   17.5378  -10.6165   -5.5139 C   0  0  0  0  0  0  0  0  0  0  0  0
   18.0913   -9.3681   -5.2592 C   0  0  0  0  0  0  0  0  0  0  0  0
   17.0555   -6.0589   -4.0543 C   0  0  0  0  0  0  0  0  0  0  0  0
   16.6689   -4.9109   -4.5465 C   0  0  0  0  0  0  0  0  0  0  0  0
   15.9391   -3.8615   -4.8002 C   0  0  0  0  0  0  0  0  0  0  0  0
   15.1672   -2.8160   -4.8182 C   0  0  0  0  0  0  0  0  0  0  0  0
   13.5803   -2.9298   -5.5429 Cl  0  0  0  0  0  0  0  0  0  0  0  0
   15.5985   -1.5419   -4.2434 C   0  0  2  0  0  0  0  0  0  0  0  0
   16.5699   -1.6881   -3.0999 C   0  0  0  0  0  0  0  0  0  0  0  0
   15.6267   -1.6305   -1.9683 N   0  0  0  0  0  0  0  0  0  0  0  0
   14.5721   -0.8035   -2.4009 N   0  0  0  0  0  0  0  0  0  0  0  0
   14.5193   -0.7244   -3.6794 C   0  0  0  0  0  0  0  0  0  0  0  0
   13.5014    0.0839   -4.4544 C   0  0  0  0  0  0  0  0  0  0  0  0
   14.1677    0.6973   -5.6171 C   0  0  0  0  0  0  0  0  0  0  0  0
   15.2264    1.4690   -5.3674 C   0  0  0  0  0  0  0  0  0  0  0  0
   15.8938    2.0734   -6.4269 O   0  0  0  0  0  0  0  0  0  0  0  0
  1  2  1  0
  2  3  1  0
  3  4  2  0
  4  5  1  0
  5  6  2  0
  6  7  1  0
  7  8  1  0
  8  9  2  0
  9 10  1  0
 10 11  1  6
 10 12  1  0
 12 13  1  0
 13 14  1  1
 13 15  1  0
 15 16  1  0
 16 17  2  0
 16 18  1  0
  7 19  2  0
 19 20  1  0
 20 21  2  0
 21 22  1  0
 22 23  2  0
 23 24  1  0
 23 25  1  0
 25 26  2  0
 19 27  1  0
 27 28  2  0
 28 29  2  0
 29 30  2  0
 30 31  1  0
 32 30  1  1
 32 33  1  0
 33 34  1  0
 34 35  1  0
 35 36  2  0
 36 37  1  0
 37 38  1  0
 38 39  2  3
 39 40  1  0
  6  2  1  0
 26 20  1  0
 36 32  1  0
M  CHG  1  18  -1
M  END
>  <docking_score>  (1) 
2.3769999999999998

$$$$
