
     RDKit          3D

 25 24  0  0  0  0  0  0  0  0999 V2000
   13.5605    0.7128   -3.8910 C   0  0  0  0  0  0  0  0  0  0  0  0
   14.7632   -0.2073   -4.1361 C   0  0  0  0  0  0  0  0  0  0  0  0
   15.0748   -0.9881   -2.9095 C   0  0  0  0  0  0  0  0  0  0  0  0
   14.4370   -1.0107   -5.3440 C   0  0  0  0  0  0  0  0  0  0  0  0
   14.6119   -2.4701   -5.2522 C   0  0  0  0  0  0  0  0  0  0  0  0
   15.0150   -3.2120   -6.4570 C   0  0  0  0  0  0  0  0  0  0  0  0
   16.4770   -3.3167   -6.7003 C   0  0  1  0  0  0  0  0  0  0  0  0
   16.8307   -4.4376   -7.6061 C   0  0  0  0  0  0  0  0  0  0  0  0
   17.0551   -2.0182   -7.1680 C   0  0  0  0  0  3  0  0  0  0  0  0
   18.2966   -2.1636   -7.9803 C   0  0  0  0  0  0  0  0  0  0  0  0
   19.5612   -2.2873   -7.2418 C   0  0  0  0  0  0  0  0  0  0  0  0
   19.7349   -1.5376   -5.9850 C   0  0  2  0  0  0  0  0  0  0  0  0
   18.6659   -1.6228   -4.9791 C   0  0  0  0  0  0  0  0  0  0  0  0
   19.0054   -2.2202   -3.6692 C   0  0  0  0  0  3  0  0  0  0  0  0
   17.8111   -2.4137   -2.7811 C   0  0  0  0  0  0  0  0  0  0  0  0
   18.0403   -3.6377   -1.9307 C   0  0  2  0  0  0  0  0  0  0  0  0
   19.4740   -3.7359   -1.4700 C   0  0  0  0  0  0  0  0  0  0  0  0
   17.5958   -4.9010   -2.5940 C   0  0  0  0  0  0  0  0  0  0  0  0
   18.7667   -5.7051   -3.0306 C   0  0  0  0  0  0  0  0  0  0  0  0
   18.7262   -6.3644   -4.3175 C   0  0  1  0  0  0  0  0  0  0  0  0
   19.3741   -5.6852   -5.4243 C   0  0  0  0  0  0  0  0  0  0  0  0
   18.4401   -7.6538   -4.4161 O   0  0  0  0  0  0  0  0  0  0  0  0
   17.3821   -7.9237   -5.2481 C   0  0  0  0  0  0  0  0  0  0  0  0
   20.1746   -0.1192   -6.2230 C   0  0  0  0  0  0  0  0  0  0  0  0
   21.0812    0.0412   -7.0321 O   0  0  0  0  0  0  0  0  0  0  0  0
  1  2  1  0
  2  3  1  0
  2  4  1  0
  4  5  1  0
  5  6  1  0
  6  7  1  0
  7  8  1  6
  7  9  1  0
  9 10  1  0
 10 11  1  0
 12 11  1  6
 12 13  1  0
 13 14  1  0
 14 15  1  0
 15 16  1  0
 16 17  1  6
 16 18  1  0
 18 19  1  0
 19 20  1  0
 20 21  1  1
 20 22  1  0
 22 23  1  0
 12 24  1  0
 24 25  2  0
M  RAD  2   9   2  14   2
M  END
>  <docking_score>  (1) 
-2.9980000000000002

$$$$

     RDKit          3D

 25 24  0  0  0  0  0  0  0  0999 V2000
   12.9542   13.4866   12.2071 C   0  0  0  0  0  0  0  0  0  0  0  0
   11.5475   13.4518   11.5963 C   0  0  0  0  0  0  0  0  0  0  0  0
   11.1824   12.0606   11.2187 C   0  0  0  0  0  0  0  0  0  0  0  0
   10.6468   14.1081   12.5807 C   0  0  0  0  0  0  0  0  0  0  0  0
    9.7229   15.1355   12.0709 C   0  0  0  0  0  0  0  0  0  0  0  0
    8.3262   14.7602   11.8010 C   0  0  0  0  0  0  0  0  0  0  0  0
    7.7984   13.6082   12.5769 C   0  0  1  0  0  0  0  0  0  0  0  0
    6.8776   14.0209   13.6650 C   0  0  0  0  0  0  0  0  0  0  0  0
    7.1816   12.5763   11.6859 C   0  0  0  0  0  3  0  0  0  0  0  0
    6.2478   11.6491   12.3861 C   0  0  0  0  0  0  0  0  0  0  0  0
    6.3279   10.2276   12.0217 C   0  0  0  0  0  0  0  0  0  0  0  0
    5.3144    9.6609   11.1143 C   0  0  2  0  0  0  0  0  0  0  0  0
    4.5221   10.5932   10.2988 C   0  0  0  0  0  0  0  0  0  0  0  0
    4.0640   10.1230    8.9734 C   0  0  0  0  0  3  0  0  0  0  0  0
    3.5790   11.2338    8.0881 C   0  0  0  0  0  0  0  0  0  0  0  0
    4.6468   12.2966    8.0253 C   0  0  2  0  0  0  0  0  0  0  0  0
    4.0682   13.6792    8.2002 C   0  0  0  0  0  0  0  0  0  0  0  0
    5.4840   12.2109    6.7902 C   0  0  0  0  0  0  0  0  0  0  0  0
    4.6359   12.3038    5.5735 C   0  0  0  0  0  0  0  0  0  0  0  0
    5.1809   11.8793    4.3026 C   0  0  1  0  0  0  0  0  0  0  0  0
    6.6116   11.6421    4.2477 C   0  0  0  0  0  0  0  0  0  0  0  0
    4.3983   11.3918    3.3519 O   0  0  0  0  0  0  0  0  0  0  0  0
    3.2359   12.1002    3.1747 C   0  0  0  0  0  0  0  0  0  0  0  0
    4.4528    8.6318   11.7930 C   0  0  0  0  0  0  0  0  0  0  0  0
    4.9663    7.5365   11.9903 O   0  0  0  0  0  0  0  0  0  0  0  0
  1  2  1  0
  2  3  1  0
  2  4  1  0
  4  5  1  0
  5  6  1  0
  6  7  1  0
  7  8  1  1
  7  9  1  0
  9 10  1  0
 10 11  1  0
 12 11  1  1
 12 13  1  0
 13 14  1  0
 14 15  1  0
 15 16  1  0
 16 17  1  6
 16 18  1  0
 18 19  1  0
 19 20  1  0
 20 21  1  1
 20 22  1  0
 22 23  1  0
 12 24  1  0
 24 25  2  0
M  RAD  2   9   2  14   2
M  END
>  <docking_score>  (2) 
-2.831

$$$$

     RDKit          3D

 25 24  0  0  0  0  0  0  0  0999 V2000
   18.7535   -5.8096   -8.7391 C   0  0  0  0  0  0  0  0  0  0  0  0
   19.0887   -5.7612   -7.2430 C   0  0  0  0  0  0  0  0  0  0  0  0
   20.5008   -5.3400   -7.0431 C   0  0  0  0  0  0  0  0  0  0  0  0
   18.0625   -4.8897   -6.6115 C   0  0  0  0  0  0  0  0  0  0  0  0
   17.1998   -4.1026   -7.5088 C   0  0  0  0  0  0  0  0  0  0  0  0
   16.5850   -2.8681   -6.9964 C   0  0  0  0  0  0  0  0  0  0  0  0
   15.0996   -2.8373   -6.9792 C   0  0  1  0  0  0  0  0  0  0  0  0
   14.4969   -3.4850   -8.1706 C   0  0  0  0  0  0  0  0  0  0  0  0
   14.5488   -3.3933   -5.7039 C   0  0  0  0  0  3  0  0  0  0  0  0
   13.2971   -2.7284   -5.2419 C   0  0  0  0  0  0  0  0  0  0  0  0
   13.4381   -1.3953   -4.6395 C   0  0  0  0  0  0  0  0  0  0  0  0
   14.7730   -0.9364   -4.2162 C   0  0  2  0  0  0  0  0  0  0  0  0
   15.0962   -0.9880   -2.7827 C   0  0  0  0  0  0  0  0  0  0  0  0
   16.1664   -1.9155   -2.3559 C   0  0  0  0  0  3  0  0  0  0  0  0
   16.9931   -2.4290   -3.4986 C   0  0  0  0  0  0  0  0  0  0  0  0
   18.2024   -3.1324   -2.9361 C   0  0  2  0  0  0  0  0  0  0  0  0
   17.8275   -4.0864   -1.8286 C   0  0  0  0  0  0  0  0  0  0  0  0
   19.2760   -2.1890   -2.4993 C   0  0  0  0  0  0  0  0  0  0  0  0
   19.1297   -0.8757   -3.1793 C   0  0  0  0  0  0  0  0  0  0  0  0
   20.3176   -0.1220   -3.5157 C   0  0  1  0  0  0  0  0  0  0  0  0
   21.0752    0.4375   -2.4115 C   0  0  0  0  0  0  0  0  0  0  0  0
   20.8813   -0.2313   -4.7091 O   0  0  0  0  0  0  0  0  0  0  0  0
   20.6289    0.8321   -5.5397 C   0  0  0  0  0  0  0  0  0  0  0  0
   15.1437    0.3849   -4.8315 C   0  0  0  0  0  0  0  0  0  0  0  0
   14.6734    0.6209   -5.9385 O   0  0  0  0  0  0  0  0  0  0  0  0
  1  2  1  0
  2  3  1  0
  2  4  1  0
  4  5  1  0
  5  6  1  0
  6  7  1  0
  7  8  1  6
  7  9  1  0
  9 10  1  0
 10 11  1  0
 12 11  1  1
 12 13  1  0
 13 14  1  0
 14 15  1  0
 15 16  1  0
 16 17  1  1
 16 18  1  0
 18 19  1  0
 19 20  1  0
 20 21  1  1
 20 22  1  0
 22 23  1  0
 12 24  1  0
 24 25  2  0
M  RAD  2   9   2  14   2
M  END
>  <docking_score>  (3) 
-2.1930000000000001

$$$$
