
     RDKit          3D

 48 49  0  0  0  0  0  0  0  0999 V2000
   15.3348   -5.0608   -2.9686 C   0  0  0  0  0  0  0  0  0  0  0  0
   15.9793   -5.7484   -4.1220 C   0  0  1  0  0  0  0  0  0  0  0  0
   15.5191   -7.1539   -4.3445 C   0  0  0  0  0  0  0  0  0  0  0  0
   14.6364   -7.3395   -5.5143 C   0  0  2  0  0  0  0  0  0  0  0  0
   15.2334   -7.8137   -6.6730 O   0  0  0  0  0  0  0  0  0  0  0  0
   13.7193   -6.2045   -5.8210 C   0  0  2  0  0  0  0  0  0  0  0  0
   13.3773   -6.3034   -7.1893 O   0  0  0  0  0  0  0  0  0  0  0  0
   14.3083   -4.8566   -5.6254 C   0  0  1  0  0  0  0  0  0  0  0  0
   13.7764   -4.3178   -4.4509 O   0  0  0  0  0  0  0  0  0  0  0  0
   15.8291   -4.9835   -5.4142 C   0  0  1  0  0  0  0  0  0  0  0  0
   16.3707   -3.6739   -5.4340 N   0  0  0  0  0  0  0  0  0  0  0  0
   15.5047   -2.8926   -6.3274 C   0  0  0  0  0  3  0  0  0  0  0  0
   15.8495   -3.4152   -7.7103 C   0  0  0  0  0  0  0  0  0  0  0  0
   15.9877   -4.8003   -7.7087 O   0  0  0  0  0  0  0  0  0  0  0  0
   17.1922   -5.2696   -8.1575 C   0  0  1  0  0  0  0  0  0  0  0  0
   18.0216   -4.2446   -8.6738 O   0  0  0  0  0  0  0  0  0  0  0  0
   17.9048   -6.0938   -7.1286 C   0  0  1  0  0  0  0  0  0  0  0  0
   18.2180   -7.3101   -7.6906 O   0  0  0  0  0  0  0  0  0  0  0  0
   19.0546   -5.4471   -6.4874 C   0  0  2  0  0  0  0  0  0  0  0  0
   19.9266   -6.4264   -5.9606 O   0  0  0  0  0  0  0  0  0  0  0  0
   18.7433   -4.3828   -5.4992 C   0  0  2  0  0  0  0  0  0  0  0  0
   18.6673   -4.8330   -4.2135 O   0  0  0  0  0  0  0  0  0  0  0  0
   17.6416   -3.4817   -6.0039 C   0  0  2  0  0  0  0  0  0  0  0  0
   18.0271   -2.0886   -5.7864 C   0  0  2  0  0  0  0  0  0  0  0  0
   17.0539   -1.2728   -5.2980 O   0  0  0  0  0  0  0  0  0  0  0  0
   18.5860   -1.3149   -7.0341 C   0  0  0  0  0  3  0  0  0  0  0  0
   19.3894   -2.4100   -7.7524 C   0  0  2  0  0  0  0  0  0  0  0  0
   20.2246   -3.2168   -7.2063 O   0  0  0  0  0  0  0  0  0  0  0  0
   20.0671   -1.5250   -8.7058 O   0  0  0  0  0  0  0  0  0  0  0  0
   20.9934   -0.9369   -8.1398 O   0  0  0  0  0  0  0  0  0  0  0  0
   21.3688    0.4251   -7.7068 S   0  0  1  0  0  0  0  0  0  0  0  0
   21.1658    1.6364   -8.1599 O   0  0  0  0  0  0  0  0  0  0  0  0
   19.9408    0.4149   -5.9968 S   0  0  0  0  0  0  0  0  0  0  0  0
   20.9084   -0.6655   -4.9956 C   0  0  0  0  0  3  0  0  0  0  0  0
   21.0559   -1.9862   -5.2845 O   0  0  0  0  0  0  0  0  0  0  0  0
   21.3635   -2.7722   -4.2752 C   0  0  0  0  0  0  0  0  0  0  0  0
   21.3558   -1.8399   -3.0969 O   0  0  0  0  0  0  0  0  0  0  0  0
   20.9395   -2.6459   -2.0050 C   0  0  0  0  0  0  0  0  0  0  0  0
   20.9579   -2.0415   -0.6935 C   0  0  0  0  0  0  0  0  0  0  0  0
   20.2814   -0.7216   -0.6929 C   0  0  0  0  0  3  0  0  0  0  0  0
   18.7033   -1.2019   -0.7628 C   0  0  2  0  0  0  0  0  0  0  0  0
   18.9792   -2.6672   -0.7970 O   0  0  0  0  0  0  0  0  0  0  0  0
   18.3581   -1.0160   -2.3001 C   0  0  0  0  0  0  0  0  0  0  0  0
   17.5813   -2.1239   -2.6348 O   0  0  0  0  0  0  0  0  0  0  0  0
   16.5167   -2.0530   -3.3130 C   0  0  0  0  0  3  0  0  0  0  0  0
   15.3050   -1.6900   -2.9141 O   0  0  0  0  0  0  0  0  0  0  0  0
   14.4066   -0.9898   -3.6866 C   0  0  0  0  0  0  0  0  0  0  0  0
   14.1166   -1.5191   -4.7806 O   0  0  0  0  0  0  0  0  0  0  0  0
  2  1  1  1
  2  3  1  0
  3  4  1  0
  4  5  1  6
  4  6  1  0
  6  7  1  6
  6  8  1  0
  8  9  1  1
  8 10  1  0
 10 11  1  1
 11 12  1  0
 12 13  1  0
 13 14  1  0
 14 15  1  0
 15 16  1  1
 15 17  1  0
 17 18  1  6
 17 19  1  0
 19 20  1  1
 19 21  1  0
 21 22  1  1
 21 23  1  0
 23 24  1  0
 24 25  1  6
 24 26  1  0
 26 27  1  0
 27 28  1  1
 27 29  1  0
 29 30  1  0
 30 31  1  0
 31 32  1  6
 31 33  1  0
 33 34  1  0
 34 35  1  0
 35 36  1  0
 36 37  1  0
 37 38  1  0
 38 39  1  0
 39 40  1  0
 40 41  1  0
 41 42  1  6
 41 43  1  0
 43 44  1  0
 44 45  1  0
 45 46  1  0
 46 47  1  0
 47 48  2  0
 10  2  1  0
 23 11  1  1
M  RAD  5  12   2  26   2  34   2  40   2  45   2
M  END
>  <docking_score>  (1) 
1.663

$$$$
