
     RDKit          3D

 20 21  0  0  0  0  0  0  0  0999 V2000
   21.1620    0.5838   -2.1312 C   0  0  0  0  0  0  0  0  0  0  0  0
   20.4625   -0.4641   -1.3174 C   0  0  0  0  0  0  0  0  0  0  0  0
   19.3624   -1.2792   -1.9302 C   0  0  0  0  0  0  0  0  0  0  0  0
   19.2000   -2.7224   -1.5549 C   0  0  0  0  0  0  0  0  0  0  0  0
   20.1376   -3.3505   -0.5669 C   0  0  0  0  0  0  0  0  0  0  0  0
   18.0999   -3.5375   -2.1676 C   0  0  0  0  0  0  0  0  0  0  0  0
   17.8662   -3.4890   -3.6486 C   0  0  0  0  0  0  0  0  0  0  0  0
   16.7450   -2.6620   -4.2043 C   0  0  0  0  0  0  0  0  0  0  0  0
   15.9184   -1.9234   -3.1939 C   0  0  0  0  0  0  0  0  0  0  0  0
   17.0396   -2.7503   -2.6381 C   0  0  0  0  0  0  0  0  0  0  0  0
   14.7413   -1.0232   -3.4265 N   0  0  0  0  0  0  0  0  0  0  0  0
   14.1001   -0.6394   -4.7272 C   0  0  0  0  0  0  0  0  0  0  0  0
   14.4776   -1.0610   -6.1162 C   0  0  0  0  0  0  0  0  0  0  0  0
   15.5896   -1.9705   -6.5479 C   0  0  0  0  0  0  0  0  0  0  0  0
   15.7082   -2.1974   -8.0259 C   0  0  0  0  0  0  0  0  0  0  0  0
   16.5987   -2.6830   -5.6970 C   0  0  0  0  0  0  0  0  0  0  0  0
   17.6936   -3.4805   -5.0442 N   0  0  0  0  0  0  0  0  0  0  0  0
   17.9272   -3.5290   -3.5633 C   0  0  0  0  0  0  0  0  0  0  0  0
   19.0485   -4.3561   -3.0076 C   0  0  0  0  0  0  0  0  0  0  0  0
   19.8516   -5.5094   -3.5319 S   0  0  0  0  0  0  0  0  0  0  0  0
  1  2  2  0
  2  3  1  0
  3  4  2  3
  4  5  1  0
  4  6  1  0
  6  7  1  0
  7  8  2  3
  8  9  1  0
  9 10  2  0
  9 11  1  0
 11 12  1  0
 12 13  1  0
 13 14  2  0
 14 15  1  0
 14 16  1  0
 16 17  2  0
 17 18  1  0
 18 19  1  0
 19 20  2  0
 16  8  1  0
 18 10  1  0
M  END
>  <docking_score>  (1) 
-5.8819999999999997

$$$$

     RDKit          3D

 20 21  0  0  0  0  0  0  0  0999 V2000
   21.3025   -5.9497   -7.2372 C   0  0  0  0  0  0  0  0  0  0  0  0
   21.2129   -6.3598   -5.7972 C   0  0  0  0  0  0  0  0  0  0  0  0
   19.9692   -6.0693   -5.0107 C   0  0  0  0  0  0  0  0  0  0  0  0
   20.0540   -5.8413   -3.5305 C   0  0  0  0  0  0  0  0  0  0  0  0
   21.3824   -5.9038   -2.8370 C   0  0  0  0  0  0  0  0  0  0  0  0
   18.8102   -5.5508   -2.7439 C   0  0  0  0  0  0  0  0  0  0  0  0
   17.9661   -4.3595   -3.0883 C   0  0  0  0  0  0  0  0  0  0  0  0
   16.7148   -4.5354   -3.8964 C   0  0  0  0  0  0  0  0  0  0  0  0
   16.3991   -5.9424   -4.3092 C   0  0  0  0  0  0  0  0  0  0  0  0
   17.6504   -5.7666   -3.5011 C   0  0  0  0  0  0  0  0  0  0  0  0
   15.2351   -6.4427   -5.1125 N   0  0  0  0  0  0  0  0  0  0  0  0
   14.0995   -5.6592   -5.7013 C   0  0  0  0  0  0  0  0  0  0  0  0
   13.8474   -4.1822   -5.6323 C   0  0  0  0  0  0  0  0  0  0  0  0
   14.6686   -3.1237   -4.9575 C   0  0  0  0  0  0  0  0  0  0  0  0
   14.1443   -1.7229   -5.0700 C   0  0  0  0  0  0  0  0  0  0  0  0
   15.9447   -3.2809   -4.1849 C   0  0  0  0  0  0  0  0  0  0  0  0
   17.2136   -3.2083   -3.3816 N   0  0  0  0  0  0  0  0  0  0  0  0
   18.0577   -4.3995   -3.0372 C   0  0  0  0  0  0  0  0  0  0  0  0
   19.3091   -4.2236   -2.2290 C   0  0  0  0  0  0  0  0  0  0  0  0
   19.8051   -3.1603   -1.2945 S   0  0  0  0  0  0  0  0  0  0  0  0
  1  2  2  0
  2  3  1  0
  3  4  2  3
  4  5  1  0
  4  6  1  0
  6  7  1  0
  7  8  2  3
  8  9  1  0
  9 10  2  0
  9 11  1  0
 11 12  1  0
 12 13  1  0
 13 14  2  0
 14 15  1  0
 14 16  1  0
 16 17  2  0
 17 18  1  0
 18 19  1  0
 19 20  2  0
 16  8  1  0
 18 10  1  0
M  END
>  <docking_score>  (2) 
-4.6349999999999998

$$$$

     RDKit          3D

 20 21  0  0  0  0  0  0  0  0999 V2000
    3.4492    7.7083    7.5022 C   0  0  0  0  0  0  0  0  0  0  0  0
    4.3990    8.2719    6.4873 C   0  0  0  0  0  0  0  0  0  0  0  0
    4.1560    9.6339    5.9077 C   0  0  0  0  0  0  0  0  0  0  0  0
    5.2926   10.4072    5.3073 C   0  0  0  0  0  0  0  0  0  0  0  0
    6.6720    9.8185    5.2866 C   0  0  0  0  0  0  0  0  0  0  0  0
    5.0496   11.7692    4.7278 C   0  0  0  0  0  0  0  0  0  0  0  0
    5.9266   12.2821    3.6242 C   0  0  0  0  0  0  0  0  0  0  0  0
    6.9002   13.3909    3.8939 C   0  0  0  0  0  0  0  0  0  0  0  0
    6.9166   13.9151    5.2991 C   0  0  0  0  0  0  0  0  0  0  0  0
    5.9431   12.8064    5.0295 C   0  0  0  0  0  0  0  0  0  0  0  0
    7.7655   15.0069    5.8802 N   0  0  0  0  0  0  0  0  0  0  0  0
    8.8076   15.8439    5.1994 C   0  0  0  0  0  0  0  0  0  0  0  0
    9.2582   15.7959    3.7696 C   0  0  0  0  0  0  0  0  0  0  0  0
    8.7781   14.8991    2.6672 C   0  0  0  0  0  0  0  0  0  0  0  0
    9.4340   15.0990    1.3332 C   0  0  0  0  0  0  0  0  0  0  0  0
    7.7286   13.8287    2.7225 C   0  0  0  0  0  0  0  0  0  0  0  0
    6.7236   12.7233    2.5528 N   0  0  0  0  0  0  0  0  0  0  0  0
    5.8465   12.2104    3.6563 C   0  0  0  0  0  0  0  0  0  0  0  0
    4.8729   11.1016    3.3867 C   0  0  0  0  0  0  0  0  0  0  0  0
    4.3702   10.4366    2.1396 S   0  0  0  0  0  0  0  0  0  0  0  0
  1  2  2  0
  2  3  1  0
  3  4  2  3
  4  5  1  0
  4  6  1  0
  6  7  1  0
  7  8  2  3
  8  9  1  0
  9 10  2  0
  9 11  1  0
 11 12  1  0
 12 13  1  0
 13 14  2  0
 14 15  1  0
 14 16  1  0
 16 17  2  0
 17 18  1  0
 18 19  1  0
 19 20  2  0
 16  8  1  0
 18 10  1  0
M  END
>  <docking_score>  (3) 
-4.2590000000000003

$$$$
