
     RDKit          3D

 36 37  0  0  0  0  0  0  0  0999 V2000
   20.1610   -6.5476   -7.2330 C   0  0  0  0  0  0  0  0  0  0  0  0
   20.5047   -5.0866   -7.2323 C   0  0  2  0  0  0  0  0  0  0  0  0
   20.5943   -4.5048   -5.8444 C   0  0  0  0  0  0  0  0  0  0  0  0
   19.6366   -4.2697   -8.1513 C   0  0  0  0  0  0  0  0  0  0  0  0
   18.2329   -4.0955   -7.6391 C   0  0  0  0  0  0  0  0  0  0  0  0
   17.3819   -5.3288   -7.8807 C   0  0  2  0  0  0  0  0  0  0  0  0
   15.9294   -4.8924   -7.7071 C   0  0  1  0  0  0  0  0  0  0  0  0
   15.0477   -6.0924   -7.3779 C   0  0  0  0  0  0  0  0  0  0  0  0
   15.8913   -3.9793   -6.5080 C   0  0  0  0  0  3  0  0  0  0  0  0
   14.5792   -3.9868   -5.7960 C   0  0  0  0  0  3  0  0  0  0  0  0
   14.8538   -3.8327   -4.3107 C   0  0  0  0  0  0  0  0  0  0  0  0
   14.7474   -2.3707   -3.9602 C   0  0  2  0  0  0  0  0  0  0  0  0
   14.5502   -1.5258   -5.1957 C   0  0  0  0  0  0  0  0  0  0  0  0
   13.4949   -0.4913   -4.8640 C   0  0  0  0  0  3  0  0  0  0  0  0
   12.0980   -0.9961   -5.0535 C   0  0  0  0  0  0  0  0  0  0  0  0
   11.3479   -0.8054   -3.7039 C   0  0  1  0  0  0  0  0  0  0  0  0
   11.3064    0.6502   -3.4907 N   0  0  0  0  0  0  0  0  0  0  0  0
    9.9826   -1.3092   -3.9303 C   0  0  0  0  0  0  0  0  0  0  0  0
    8.8711   -0.4564   -4.2216 C   0  0  0  0  0  0  0  0  0  0  0  0
    7.9902   -0.7662   -5.3418 C   0  0  0  0  0  0  0  0  0  0  0  0
    6.6411   -1.2965   -5.0364 C   0  0  0  0  0  0  0  0  0  0  0  0
    5.7814   -1.2554   -6.2704 C   0  0  0  0  0  0  0  0  0  0  0  0
    5.8487    0.0858   -6.9552 C   0  0  0  0  0  0  0  0  0  0  0  0
    6.6453    0.0063   -8.2397 C   0  0  0  0  0  0  0  0  0  0  0  0
   15.8279   -1.8873   -3.0623 C   0  0  2  0  0  0  0  0  0  0  0  0
   16.0327   -0.4042   -3.2880 C   0  0  0  0  0  0  0  0  0  0  0  0
   17.1468   -2.5785   -3.2654 C   0  0  0  0  0  0  0  0  0  0  0  0
   17.3924   -3.5748   -2.3274 O   0  0  0  0  0  0  0  0  0  0  0  0
   17.0760   -4.8382   -2.7606 C   0  0  0  0  0  0  0  0  0  0  0  0
   17.9476   -5.3403   -3.8783 C   0  0  0  0  0  0  0  0  0  0  0  0
   17.2555   -6.5435   -4.4904 C   0  0  0  0  0  0  0  0  0  0  0  0
   16.7510   -6.2698   -5.7585 O   0  0  0  0  0  0  0  0  0  0  0  0
   17.7022   -6.3052   -6.7502 C   0  0  1  0  0  0  0  0  0  0  0  0
   17.8786   -7.7169   -7.3184 C   0  0  0  0  0  0  0  0  0  0  0  0
   18.4113   -7.5241   -8.7399 C   0  0  0  0  0  0  0  0  0  0  0  0
   19.8235   -6.9730   -8.6435 C   0  0  0  0  0  3  0  0  0  0  0  0
  1  2  1  0
  2  3  1  1
  2  4  1  0
  4  5  1  0
  6  5  1  1
  6  7  1  0
  7  8  1  1
  7  9  1  0
  9 10  1  0
 10 11  1  0
 11 12  1  0
 12 13  1  6
 13 14  1  0
 14 15  1  0
 15 16  1  0
 16 17  1  6
 16 18  1  0
 18 19  1  0
 19 20  1  0
 20 21  1  0
 21 22  1  0
 22 23  1  0
 23 24  1  0
 12 25  1  0
 25 26  1  6
 25 27  1  0
 27 28  1  0
 28 29  1  0
 29 30  1  0
 30 31  1  0
 31 32  1  0
 32 33  1  0
 33 34  1  6
 34 35  1  0
 35 36  1  0
 36  1  1  0
 33  6  1  0
M  RAD  4   9   2  10   2  14   2  36   2
M  END
>  <docking_score>  (1) 
2.6389999999999998

$$$$
