
     RDKit          3D

 11 11  0  0  0  0  0  0  0  0999 V2000
    4.8866   -4.1160   -6.4667 O   0  0  0  0  0  0  0  0  0  0  0  0
    5.1056   -3.1238   -7.4006 C   0  0  0  0  0  0  0  0  0  0  0  0
    6.1112   -2.0947   -6.9586 C   0  0  2  0  0  0  0  0  0  0  0  0
    6.0300   -1.9958   -5.5133 N   0  0  0  0  0  0  0  0  0  0  0  0
    6.9916   -1.0766   -4.9588 C   0  0  0  0  0  0  0  0  0  0  0  0
    7.1568    0.1721   -5.8140 C   0  0  2  0  0  0  0  0  0  0  0  0
    7.2843    1.2848   -4.9657 O   0  0  0  0  0  0  0  0  0  0  0  0
    5.8322    0.3601   -6.5464 C   0  0  1  0  0  0  0  0  0  0  0  0
    5.8020    1.5575   -7.2511 O   0  0  0  0  0  0  0  0  0  0  0  0
    5.7126   -0.7703   -7.5496 C   0  0  1  0  0  0  0  0  0  0  0  0
    6.5055   -0.4723   -8.6678 O   0  0  0  0  0  0  0  0  0  0  0  0
  1  2  1  0
  3  2  1  6
  3  4  1  0
  4  5  1  0
  5  6  1  0
  6  7  1  1
  6  8  1  0
  8  9  1  6
  8 10  1  0
 10 11  1  6
 10  3  1  0
M  END
>  <docking_score>  (1) 
-4.4029999999999996

$$$$

     RDKit          3D

 11 11  0  0  0  0  0  0  0  0999 V2000
    4.8950   -4.5509   -6.7056 O   0  0  0  0  0  0  0  0  0  0  0  0
    5.6883   -3.6518   -7.3888 C   0  0  0  0  0  0  0  0  0  0  0  0
    5.4618   -2.2207   -6.9811 C   0  0  2  0  0  0  0  0  0  0  0  0
    5.6553   -1.3944   -8.1580 N   0  0  0  0  0  0  0  0  0  0  0  0
    5.4086    0.0035   -7.9090 C   0  0  0  0  0  0  0  0  0  0  0  0
    5.9352    0.4503   -6.5521 C   0  0  2  0  0  0  0  0  0  0  0  0
    6.4995    1.7297   -6.6874 O   0  0  0  0  0  0  0  0  0  0  0  0
    7.0971   -0.4814   -6.2229 C   0  0  1  0  0  0  0  0  0  0  0  0
    7.7631   -0.0822   -5.0704 O   0  0  0  0  0  0  0  0  0  0  0  0
    6.5087   -1.8547   -5.9650 C   0  0  1  0  0  0  0  0  0  0  0  0
    5.9686   -1.8828   -4.6707 O   0  0  0  0  0  0  0  0  0  0  0  0
  1  2  1  0
  3  2  1  6
  3  4  1  0
  4  5  1  0
  5  6  1  0
  6  7  1  6
  6  8  1  0
  8  9  1  1
  8 10  1  0
 10 11  1  1
 10  3  1  0
M  END
>  <docking_score>  (2) 
-3.806

$$$$

     RDKit          3D

 11 11  0  0  0  0  0  0  0  0999 V2000
   14.9163   -6.6890   -4.3550 O   0  0  0  0  0  0  0  0  0  0  0  0
   16.2227   -6.3758   -4.6705 C   0  0  0  0  0  0  0  0  0  0  0  0
   16.6976   -5.0885   -4.0517 C   0  0  2  0  0  0  0  0  0  0  0  0
   16.2097   -5.0532   -2.6858 N   0  0  0  0  0  0  0  0  0  0  0  0
   16.6493   -3.8865   -1.9627 C   0  0  0  0  0  0  0  0  0  0  0  0
   16.6327   -2.6321   -2.8253 C   0  0  2  0  0  0  0  0  0  0  0  0
   16.1734   -1.5566   -2.0466 O   0  0  0  0  0  0  0  0  0  0  0  0
   15.5603   -2.8630   -3.8850 C   0  0  1  0  0  0  0  0  0  0  0  0
   15.3419   -1.7233   -4.6496 O   0  0  0  0  0  0  0  0  0  0  0  0
   16.0734   -3.9492   -4.8099 C   0  0  1  0  0  0  0  0  0  0  0  0
   16.9981   -3.3875   -5.7027 O   0  0  0  0  0  0  0  0  0  0  0  0
  1  2  1  0
  3  2  1  6
  3  4  1  0
  4  5  1  0
  5  6  1  0
  6  7  1  1
  6  8  1  0
  8  9  1  6
  8 10  1  0
 10 11  1  6
 10  3  1  0
M  END
>  <docking_score>  (3) 
-3.4889999999999999

$$$$
