
     RDKit          3D

 67 67  0  0  0  0  0  0  0  0999 V2000
    7.0238   10.0815    5.6885 C   0  0  0  0  0  0  0  0  0  0  0  0
    6.3981    8.7149    5.6997 C   0  0  0  0  0  3  0  0  0  0  0  0
    5.3700    8.6442    4.6121 C   0  0  0  0  0  0  0  0  0  0  0  0
    4.1775    9.5242    4.9008 C   0  0  2  0  0  0  0  0  0  0  0  0
    3.1239    8.8402    5.4628 O   0  0  0  0  0  0  0  0  0  0  0  0
    3.7624   10.2479    3.6198 C   0  0  2  0  0  0  0  0  0  0  0  0
    4.1931    9.5645    2.4974 O   0  0  0  0  0  0  0  0  0  0  0  0
    4.4009   11.6357    3.6839 C   0  0  1  0  0  0  0  0  0  0  0  0
    3.3998   12.5332    4.0663 O   0  0  0  0  0  0  0  0  0  0  0  0
    5.4715   11.6929    4.7381 C   0  0  0  0  0  3  0  0  0  0  0  0
    6.6577   10.8048    4.3859 C   0  0  1  0  0  0  0  0  0  0  0  0
    7.8682   11.6400    4.0238 C   0  0  0  0  0  3  0  0  0  0  0  0
    7.6026   12.5772    2.8921 C   0  0  2  0  0  0  0  0  0  0  0  0
    7.2157   13.9567    3.3154 C   0  0  0  0  0  0  0  0  0  0  0  0
    6.6757   11.9840    2.0367 O   0  0  0  0  0  0  0  0  0  0  0  0
    7.3587   11.5748    0.9117 C   0  0  0  0  0  0  0  0  0  0  0  0
    8.1246   10.3039    1.0715 C   0  0  0  0  0  0  0  0  0  0  0  0
    9.4824   10.6030    0.9696 O   0  0  0  0  0  0  0  0  0  0  0  0
   10.2750    9.4818    1.2082 C   0  0  1  0  0  0  0  0  0  0  0  0
    9.9154    8.4120    0.3915 O   0  0  0  0  0  0  0  0  0  0  0  0
   11.7387    9.7695    0.9355 C   0  0  2  0  0  0  0  0  0  0  0  0
   11.8327   10.5679   -0.2269 O   0  0  0  0  0  0  0  0  0  0  0  0
   12.3883    8.4067    0.6617 C   0  0  0  0  0  3  0  0  0  0  0  0
   13.1567    8.0013    1.8950 C   0  0  0  0  0  3  0  0  0  0  0  0
   13.1419    6.4988    2.0497 C   0  0  0  0  0  0  0  0  0  0  0  0
   12.9233    5.8673    0.8226 O   0  0  0  0  0  0  0  0  0  0  0  0
   13.8248    4.9496    0.5833 O   0  0  0  0  0  0  0  0  0  0  0  0
   14.1358    4.9062   -0.7218 N   0  0  0  0  0  0  0  0  0  0  0  0
   13.7815    3.5854   -1.2160 C   0  0  2  0  0  0  0  0  0  0  0  0
   12.6084    3.5761   -1.9332 O   0  0  0  0  0  0  0  0  0  0  0  0
   13.8380    2.5588   -0.1198 C   0  0  0  0  0  3  0  0  0  0  0  0
   15.2408    2.4736    0.3559 C   0  0  0  0  0  0  0  0  0  0  0  0
   15.7903    1.3237    0.6482 C   0  0  0  0  0  0  0  0  0  0  0  0
   15.0524    0.1580    0.5127 O   0  0  0  0  0  0  0  0  0  0  0  0
   15.6262   -1.0119   -0.0447 C   0  0  0  0  0  3  0  0  0  0  0  0
   15.5200   -0.9180   -1.4889 N   0  0  0  0  0  0  0  0  0  0  0  0
   16.8502   -0.6799   -2.0649 C   0  0  2  0  0  0  0  0  0  0  0  0
   16.6877   -0.2030   -3.4797 C   0  0  0  0  0  2  0  0  0  0  0  0
   17.6050   -1.8642   -1.9921 O   0  0  0  0  0  0  0  0  0  0  0  0
   17.0818   -3.0884   -2.3703 C   0  0  0  0  0  0  0  0  0  0  0  0
   17.7288   -3.8243   -3.2456 C   0  0  0  0  0  0  0  0  0  0  0  0
   18.9213   -3.3604   -3.7723 O   0  0  0  0  0  0  0  0  0  0  0  0
   19.1770   -3.5921   -5.1449 C   0  0  1  0  0  0  0  0  0  0  0  0
   18.6757   -2.4308   -5.9661 C   0  0  0  0  0  2  0  0  0  0  0  0
   20.6723   -3.7200   -5.3154 C   0  0  0  0  0  0  0  0  0  0  0  0
   20.9652   -4.0417   -6.7773 C   0  0  0  0  0  3  0  0  0  0  0  0
   20.3180   -5.4017   -7.0376 C   0  0  0  0  0  0  0  0  0  0  0  0
   21.2545   -6.5145   -6.5886 C   0  0  2  0  0  0  0  0  0  0  0  0
   21.3239   -7.4187   -7.6474 O   0  0  0  0  0  0  0  0  0  0  0  0
   20.5796   -7.2056   -5.4164 C   0  0  0  0  0  3  0  0  0  0  0  0
   19.2891   -7.8027   -5.9035 C   0  0  1  0  0  0  0  0  0  0  0  0
   19.5667   -9.0141   -6.7389 C   0  0  0  0  0  0  0  0  0  0  0  0
   18.4730   -8.0472   -4.8123 O   0  0  0  0  0  0  0  0  0  0  0  0
   17.1996   -7.4981   -5.0106 C   0  0  2  0  0  0  0  0  0  0  0  0
   16.3359   -8.5894   -5.1352 O   0  0  0  0  0  0  0  0  0  0  0  0
   17.2241   -6.6696   -6.2749 C   0  0  0  0  0  0  0  0  0  0  0  0
   15.9736   -6.2190   -6.6554 O   0  0  0  0  0  0  0  0  0  0  0  0
   15.9091   -4.8410   -6.7887 C   0  0  0  0  0  3  0  0  0  0  0  0
   14.9124   -4.2562   -5.8020 C   0  0  2  0  0  0  0  0  0  0  0  0
   13.7919   -5.0908   -5.6836 O   0  0  0  0  0  0  0  0  0  0  0  0
   14.4551   -2.8803   -6.2590 C   0  0  0  0  0  3  0  0  0  0  0  0
   14.6247   -1.9396   -5.2542 O   0  0  0  0  0  0  0  0  0  0  0  0
   13.6441   -0.9629   -5.2253 C   0  0  0  0  0  3  0  0  0  0  0  0
   13.4560   -0.4532   -3.8115 C   0  0  0  0  0  0  0  0  0  0  0  0
   12.1178   -0.6248   -3.4103 O   0  0  0  0  0  0  0  0  0  0  0  0
   11.3170   -0.1504   -4.3841 N   0  0  0  0  0  0  0  0  0  0  0  0
   10.0463   -0.4646   -4.0428 O   0  0  0  0  0  0  0  0  0  0  0  0
  1  2  1  0
  2  3  1  0
  3  4  1  0
  4  5  1  6
  4  6  1  0
  6  7  1  6
  6  8  1  0
  8  9  1  1
  8 10  1  0
 10 11  1  0
 11 12  1  1
 12 13  1  0
 13 14  1  1
 13 15  1  0
 15 16  1  0
 16 17  1  0
 17 18  1  0
 18 19  1  0
 19 20  1  6
 19 21  1  0
 21 22  1  6
 21 23  1  0
 23 24  1  0
 24 25  1  0
 25 26  1  0
 26 27  1  0
 27 28  1  0
 28 29  1  0
 29 30  1  1
 29 31  1  0
 31 32  1  0
 32 33  2  3
 33 34  1  0
 34 35  1  0
 35 36  1  0
 36 37  1  0
 37 38  1  6
 37 39  1  0
 39 40  1  0
 40 41  2  3
 41 42  1  0
 42 43  1  0
 43 44  1  6
 43 45  1  0
 45 46  1  0
 46 47  1  0
 47 48  1  0
 48 49  1  6
 48 50  1  0
 50 51  1  0
 51 52  1  1
 51 53  1  0
 53 54  1  0
 54 55  1  6
 54 56  1  0
 56 57  1  0
 57 58  1  0
 58 59  1  0
 59 60  1  6
 59 61  1  0
 61 62  1  0
 62 63  1  0
 63 64  1  0
 64 65  1  0
 65 66  1  0
 66 67  1  0
 11  1  1  0
M  RAD  8   2   2  10   2  12   2  23   2  24   2  31   2  35   2  38   3
M  RAD  6  44   3  46   2  50   2  58   2  61   2  63   2
M  END
>  <docking_score>  (1) 
54.826000000000001

$$$$
