
     RDKit          3D

 75 78  0  0  0  0  0  0  0  0999 V2000
   16.8147   -2.0561   -1.9126 C   0  0  0  0  0  0  0  0  0  0  0  0
   16.9622   -0.5902   -1.9199 C   0  0  2  0  0  0  0  0  0  0  0  0
   15.9144    0.1974   -2.5883 C   0  0  0  0  0  0  0  0  0  0  0  0
   18.3269   -0.0397   -1.9006 C   0  0  0  0  0  0  0  0  0  0  0  0
   18.7620    0.5680   -0.6061 C   0  0  0  0  0  0  0  0  0  0  0  0
   18.6966    2.0993   -0.6348 C   0  0  0  0  0  0  0  0  0  0  0  0
   18.0726    2.5828    0.6557 C   0  0  1  0  0  0  0  0  0  0  0  0
   16.7350    1.9169    0.9236 C   0  0  0  0  0  0  0  0  0  0  0  0
   18.9661    2.2631    1.8497 C   0  0  0  0  0  3  0  0  0  0  0  0
   18.6084    3.0777    3.0469 C   0  0  0  0  0  3  0  0  0  0  0  0
   17.3500    2.6124    3.7329 C   0  0  0  0  0  0  0  0  0  0  0  0
   17.4148    1.1741    4.1697 C   0  0  0  0  0  3  0  0  0  0  0  0
   18.1918    1.0281    5.4587 C   0  0  0  0  0  0  0  0  0  0  0  0
   16.0542    0.5557    4.3043 C   0  0  0  0  0  3  0  0  0  0  0  0
   15.7331    0.1323    5.7157 C   0  0  0  0  0  0  0  0  0  0  0  0
   15.8609   -1.3515    5.9184 C   0  0  1  0  0  0  0  0  0  0  0  0
   15.2428   -1.7697    7.2124 C   0  0  0  0  0  3  0  0  0  0  0  0
   15.0327   -0.6497    8.1816 C   0  0  0  0  0  0  0  0  0  0  0  0
   15.7899   -1.0170    9.4607 C   0  0  0  0  0  0  0  0  0  0  0  0
   15.2266   -2.1533    4.8059 C   0  0  1  0  0  0  0  0  0  0  0  0
   13.7448   -1.8900    4.6773 C   0  0  0  0  0  0  0  0  0  0  0  0
   16.1115   -1.7902    3.2812 S   0  0  0  0  0  0  0  0  0  0  0  0
   14.8973   -1.5631    1.9471 C   0  0  0  0  0  0  0  0  0  0  0  0
   14.7836   -2.8602    1.2099 C   0  0  1  0  0  0  0  0  0  0  0  0
   15.4934   -4.0273    1.8175 C   0  0  0  0  0  0  0  0  0  0  0  0
   13.0849   -3.2086    0.7856 S   0  0  2  0  0  0  0  0  0  0  0  0
   14.3432   -3.7054   -1.1017 C   0  0  0  0  0  0  0  0  0  0  0  0
   15.0231   -2.6506   -0.2661 C   0  0  2  0  0  0  0  0  0  0  0  0
   16.4918   -2.5607   -0.5174 C   0  0  2  0  0  0  0  0  0  0  0  0
   17.0613   -1.5395    0.4615 C   0  0  0  0  0  2  0  0  0  0  0  0
   17.3401   -4.1310   -0.1753 S   0  0  0  0  0  0  0  0  0  0  0  0
   19.1106   -3.9545   -0.4991 C   0  0  0  0  0  0  0  0  0  0  0  0
   19.3531   -4.4286   -1.9332 C   0  0  0  0  0  3  0  0  0  0  0  0
   18.5467   -5.6874   -2.1670 C   0  0  0  0  0  0  0  0  0  0  0  0
   19.3491   -6.5751   -3.0855 C   0  0  1  0  0  0  0  0  0  0  0  0
   19.9894   -5.7841   -4.2086 C   0  0  0  0  0  2  0  0  0  0  0  0
   20.4182   -7.3049   -2.3073 C   0  0  0  0  0  0  0  0  0  0  0  0
   18.3828   -7.5562   -3.7231 C   0  0  0  0  0  0  0  0  0  0  0  0
   19.1003   -8.8502   -4.0380 C   0  0  0  0  0  0  0  0  0  0  0  0
   18.1374   -9.7413   -4.8064 C   0  0  0  0  0  0  0  0  0  0  0  0
   18.1155   -9.2987   -6.2457 C   0  0  0  0  0  0  0  0  0  0  0  0
   17.0960   -8.1979   -6.4939 C   0  0  2  0  0  0  0  0  0  0  0  0
   15.8338   -8.7248   -7.1233 C   0  0  0  0  0  0  0  0  0  0  0  0
   17.7105   -7.1685   -7.4026 C   0  0  2  0  0  0  0  0  0  0  0  0
   19.2057   -7.2292   -7.2469 C   0  0  0  0  0  1  0  0  0  0  0  0
   17.1998   -5.7892   -7.0496 C   0  0  0  0  0  0  0  0  0  0  0  0
   18.3042   -4.7782   -7.2009 C   0  0  0  0  0  0  0  0  0  0  0  0
   17.7944   -3.6371   -8.0845 C   0  0  2  0  0  0  0  0  0  0  0  0
   18.8911   -2.6284   -8.3128 C   0  0  0  0  0  2  0  0  0  0  0  0
   16.3712   -2.8342   -7.2893 S   0  0  0  0  0  0  0  0  0  0  0  0
   16.7964   -2.2718   -5.6174 C   0  0  0  0  0  0  0  0  0  0  0  0
   15.6117   -2.4486   -4.6784 C   0  0  0  0  0  0  0  0  0  0  0  0
   14.9016   -1.1174   -4.4718 C   0  0  1  0  0  0  0  0  0  0  0  0
   13.8020   -1.3283   -3.4717 C   0  0  0  0  0  2  0  0  0  0  0  0
   15.8797   -0.0520   -4.0598 C   0  0  0  0  0  3  0  0  0  0  0  0
   15.6682    1.2482   -4.7741 C   0  0  0  0  0  3  0  0  0  0  0  0
   16.6361    1.3405   -5.9113 C   0  0  0  0  0  0  0  0  0  0  0  0
   18.0396    1.3179   -5.3296 C   0  0  0  0  0  0  0  0  0  0  0  0
   18.7416    0.0712   -5.8534 C   0  0  0  0  0  0  0  0  0  0  0  0
   19.7671   -0.3808   -4.8269 C   0  0  0  0  0  3  0  0  0  0  0  0
   20.3813   -1.7020   -5.2181 C   0  0  0  0  0  0  0  0  0  0  0  0
   21.3786   -2.1045   -4.1733 C   0  0  0  0  0  0  0  0  0  0  0  0
   21.1510   -1.3566   -2.8784 C   0  0  0  0  0  1  0  0  0  0  0  0
   14.2400   -0.6471   -5.7660 C   0  0  0  0  0  0  0  0  0  0  0  0
   13.1654    0.3462   -5.3622 C   0  0  0  0  0  3  0  0  0  0  0  0
   11.8472   -0.3581   -5.4079 C   0  0  0  0  0  0  0  0  0  0  0  0
   11.1433   -0.3520   -4.0497 C   0  0  0  0  0  0  0  0  0  0  0  0
    9.6962   -0.7487   -4.3246 C   0  0  1  0  0  0  0  0  0  0  0  0
    8.7946    0.7771   -5.0592 Br  0  0  0  0  0  0  0  0  0  0  0  0
    9.7121   -1.9272   -5.2839 C   0  0  0  0  0  0  0  0  0  0  0  0
    8.8740   -1.3158   -2.7264 Si  0  0  0  0  0  3  0  0  0  0  0  0
    7.2901   -2.1781   -3.2121 C   0  0  0  0  0  0  0  0  0  0  0  0
    9.9895   -2.6226   -1.9483 C   0  0  0  0  0  3  0  0  0  0  0  0
   11.0653   -1.7376   -0.7701 S   0  0  0  0  0  0  0  0  0  0  0  0
   11.9677   -2.9733    0.2019 C   0  0  0  0  0  3  0  0  0  0  0  0
  1  2  1  0
  2  3  1  0
  2  4  1  6
  4  5  1  0
  5  6  1  0
  6  7  1  0
  7  8  1  1
  7  9  1  0
  9 10  1  0
 10 11  1  0
 11 12  1  0
 12 13  1  0
 12 14  1  0
 14 15  1  0
 15 16  1  0
 16 17  1  1
 17 18  1  0
 18 19  1  0
 16 20  1  0
 20 21  1  6
 20 22  1  0
 22 23  1  0
 23 24  1  0
 24 25  1  1
 24 26  1  0
 26 27  1  0
 28 27  1  6
 28 29  1  0
 29 30  1  1
 29 31  1  0
 31 32  1  0
 32 33  1  0
 33 34  1  0
 34 35  1  0
 35 36  1  6
 35 37  1  0
 35 38  1  0
 38 39  1  0
 39 40  1  0
 40 41  1  0
 41 42  1  0
 42 43  1  6
 42 44  1  0
 44 45  1  1
 44 46  1  0
 46 47  1  0
 47 48  1  0
 48 49  1  1
 48 50  1  0
 50 51  1  0
 51 52  1  0
 52 53  1  0
 53 54  1  1
 53 55  1  0
 55 56  1  0
 56 57  1  0
 57 58  1  0
 58 59  1  0
 59 60  1  0
 60 61  1  0
 61 62  1  0
 62 63  1  0
 53 64  1  0
 64 65  1  0
 65 66  1  0
 66 67  1  0
 67 68  1  0
 68 69  1  0
 68 70  1  6
 68 71  1  0
 71 72  1  0
 71 73  1  0
 73 74  1  0
 74 75  1  0
 29  1  1  0
 55  3  1  0
 28 24  1  0
 75 26  1  0
M  RAD  8   9   2  10   2  12   2  14   2  17   2  30   3  33   2  36   3
M  RAD  8  45   2  49   3  54   3  55   2  56   2  60   2  63   2  65   2
M  RAD  3  71   2  73   2  75   2
M  END
>  <docking_score>  (1) 
194.59200000000001

$$$$
