
     RDKit          3D

 29 30  0  0  0  0  0  0  0  0999 V2000
   13.7476    0.2053   -4.9673 C   0  0  0  0  0  0  0  0  0  0  0  0
   14.6140   -0.8064   -5.6857 C   0  0  0  0  0  0  0  0  0  0  0  0
   16.0498   -0.4822   -5.3300 C   0  0  0  0  0  0  0  0  0  0  0  0
   14.3135   -2.1923   -5.2079 C   0  0  0  0  0  0  0  0  0  0  0  0
   15.1879   -3.2431   -5.7938 C   0  0  0  0  0  0  0  0  0  0  0  0
   14.5083   -4.4950   -6.2298 C   0  0  0  0  0  0  0  0  0  0  0  0
   14.8785   -5.7074   -5.4040 C   0  0  1  0  0  0  0  0  0  0  0  0
   15.9258   -6.5503   -6.1150 C   0  0  0  0  0  0  0  0  0  0  0  0
   15.5839   -5.1660   -4.1541 C   0  0  0  0  0  3  0  0  0  0  0  0
   16.7808   -6.0398   -3.8907 C   0  0  0  0  0  0  0  0  0  0  0  0
   17.4552   -5.5969   -2.6081 C   0  0  0  0  0  0  0  0  0  0  0  0
   18.0357   -4.2046   -2.8373 C   0  0  1  0  0  0  0  0  0  0  0  0
   16.9782   -3.1409   -2.5569 C   0  0  0  0  0  0  0  0  0  0  0  0
   19.1478   -4.0334   -1.8222 C   0  0  0  0  0  0  0  0  0  0  0  0
   20.4340   -4.5420   -2.3915 C   0  0  1  0  0  0  0  0  0  0  0  0
   20.2022   -5.5477   -3.4584 C   0  0  0  0  0  0  0  0  0  0  0  0
   21.3825   -3.4689   -2.7808 C   0  0  0  0  0  0  0  0  0  0  0  0
   21.1760   -2.9663   -4.1579 C   0  0  0  0  0  0  0  0  0  0  0  0
   20.2871   -1.8062   -4.3125 C   0  0  1  0  0  0  0  0  0  0  0  0
   20.3408   -0.3624   -2.7972 I   0  0  0  0  0  0  0  0  0  0  0  0
   19.9776   -1.3274   -5.6729 C   0  0  0  0  0  0  0  0  0  0  0  0
   18.9664   -2.1490   -6.4044 C   0  0  0  0  0  0  0  0  0  0  0  0
   19.4501   -3.4533   -6.9287 C   0  0  1  0  0  0  0  0  0  0  0  0
   18.5725   -4.6485   -6.7604 C   0  0  2  0  0  0  0  0  0  0  0  0
   19.3579   -5.8030   -6.7217 O   0  0  0  0  0  0  0  0  0  0  0  0
   18.0758   -4.4353   -8.0638 O   0  0  0  0  0  0  0  0  0  0  0  0
   19.2554   -3.7519   -8.3780 C   0  0  2  0  0  0  0  0  0  0  0  0
   20.2784   -4.8380   -8.7396 C   0  0  0  0  0  0  0  0  0  0  0  0
   20.4468   -5.7482   -7.5587 C   0  0  0  0  0  3  0  0  0  0  0  0
  1  2  1  0
  2  3  1  0
  2  4  1  0
  4  5  1  0
  5  6  1  0
  6  7  1  0
  7  8  1  6
  7  9  1  0
  9 10  1  0
 10 11  1  0
 11 12  1  0
 12 13  1  1
 12 14  1  0
 14 15  1  0
 15 16  1  6
 15 17  1  0
 17 18  1  0
 18 19  1  0
 19 20  1  1
 19 21  1  0
 21 22  1  0
 23 22  1  6
 23 24  1  0
 24 25  1  6
 24 26  1  0
 26 27  1  0
 27 28  1  1
 28 29  1  0
 27 23  1  0
 29 25  1  0
M  RAD  2   9   2  29   2
M  END
>  <docking_score>  (1) 
-3.5190000000000001

$$$$

     RDKit          3D

 29 30  0  0  0  0  0  0  0  0999 V2000
    5.4768   12.6340    1.8993 C   0  0  0  0  0  0  0  0  0  0  0  0
    6.8399   12.8798    2.5090 C   0  0  0  0  0  0  0  0  0  0  0  0
    7.5278   13.9106    1.6387 C   0  0  0  0  0  0  0  0  0  0  0  0
    6.7071   13.4437    3.8887 C   0  0  0  0  0  0  0  0  0  0  0  0
    6.1376   12.4959    4.8834 C   0  0  0  0  0  0  0  0  0  0  0  0
    4.8495   12.9002    5.5130 C   0  0  0  0  0  0  0  0  0  0  0  0
    4.0786   11.7463    6.1158 C   0  0  1  0  0  0  0  0  0  0  0  0
    4.3276   10.4620    5.3403 C   0  0  0  0  0  0  0  0  0  0  0  0
    4.6969   11.5034    7.4983 C   0  0  0  0  0  3  0  0  0  0  0  0
    4.4676   12.7401    8.3249 C   0  0  0  0  0  0  0  0  0  0  0  0
    4.8086   12.4489    9.7723 C   0  0  0  0  0  0  0  0  0  0  0  0
    3.7122   11.5551   10.3441 C   0  0  1  0  0  0  0  0  0  0  0  0
    4.3300   10.3727   11.0848 C   0  0  0  0  0  0  0  0  0  0  0  0
    2.9603   12.3961   11.3561 C   0  0  0  0  0  0  0  0  0  0  0  0
    3.7386   12.4675   12.6313 C   0  0  1  0  0  0  0  0  0  0  0  0
    4.1479   11.1201   13.1005 C   0  0  0  0  0  0  0  0  0  0  0  0
    4.8503   13.4503   12.6003 C   0  0  0  0  0  0  0  0  0  0  0  0
    6.0662   12.9921   13.3097 C   0  0  0  0  0  0  0  0  0  0  0  0
    7.2494   13.8596   13.2227 C   0  0  1  0  0  0  0  0  0  0  0  0
    7.0541   15.6196   12.1055 I   0  0  0  0  0  0  0  0  0  0  0  0
    8.1839   13.8994   14.3632 C   0  0  0  0  0  0  0  0  0  0  0  0
    9.4797   14.5872   14.0795 C   0  0  0  0  0  0  0  0  0  0  0  0
   10.4832   13.7902   13.3259 C   0  0  1  0  0  0  0  0  0  0  0  0
   10.7772   14.1808   11.9160 C   0  0  2  0  0  0  0  0  0  0  0  0
   11.2107   13.0613   11.2018 O   0  0  0  0  0  0  0  0  0  0  0  0
   11.8820   14.9261   12.3800 O   0  0  0  0  0  0  0  0  0  0  0  0
   11.9291   14.1086   13.5144 C   0  0  2  0  0  0  0  0  0  0  0  0
   12.7092   12.8566   13.0894 C   0  0  0  0  0  0  0  0  0  0  0  0
   11.9830   12.2048   11.9496 C   0  0  0  0  0  3  0  0  0  0  0  0
  1  2  1  0
  2  3  1  0
  2  4  1  0
  4  5  1  0
  5  6  1  0
  6  7  1  0
  7  8  1  6
  7  9  1  0
  9 10  1  0
 10 11  1  0
 11 12  1  0
 12 13  1  1
 12 14  1  0
 14 15  1  0
 15 16  1  6
 15 17  1  0
 17 18  1  0
 18 19  1  0
 19 20  1  1
 19 21  1  0
 21 22  1  0
 23 22  1  1
 23 24  1  0
 24 25  1  6
 24 26  1  0
 26 27  1  0
 27 28  1  6
 28 29  1  0
 27 23  1  0
 29 25  1  0
M  RAD  2   9   2  29   2
M  END
>  <docking_score>  (2) 
-1.488

$$$$

     RDKit          3D

 29 30  0  0  0  0  0  0  0  0999 V2000
    3.3622   10.6447   10.9309 C   0  0  0  0  0  0  0  0  0  0  0  0
    4.4119   10.8304    9.8567 C   0  0  0  0  0  0  0  0  0  0  0  0
    4.1683    9.7557    8.8181 C   0  0  0  0  0  0  0  0  0  0  0  0
    4.2606   12.1646    9.1961 C   0  0  0  0  0  0  0  0  0  0  0  0
    5.1557   13.2203    9.7402 C   0  0  0  0  0  0  0  0  0  0  0  0
    5.2914   14.4546    8.9172 C   0  0  0  0  0  0  0  0  0  0  0  0
    4.8147   14.2900    7.4908 C   0  0  1  0  0  0  0  0  0  0  0  0
    3.5805   15.1391    7.2287 C   0  0  0  0  0  0  0  0  0  0  0  0
    5.9116   14.8978    6.6075 C   0  0  0  0  0  3  0  0  0  0  0  0
    6.9970   13.8666    6.4528 C   0  0  0  0  0  0  0  0  0  0  0  0
    7.4721   13.8474    5.0141 C   0  0  0  0  0  0  0  0  0  0  0  0
    7.4919   15.2856    4.5051 C   0  0  1  0  0  0  0  0  0  0  0  0
    8.8100   15.5735    3.7923 C   0  0  0  0  0  0  0  0  0  0  0  0
    6.3778   15.3921    3.4832 C   0  0  0  0  0  0  0  0  0  0  0  0
    6.5279   14.3135    2.4581 C   0  0  1  0  0  0  0  0  0  0  0  0
    7.9390   13.8713    2.3294 C   0  0  0  0  0  0  0  0  0  0  0  0
    5.5659   13.1950    2.6203 C   0  0  0  0  0  0  0  0  0  0  0  0
    4.4828   13.4806    3.5883 C   0  0  0  0  0  0  0  0  0  0  0  0
    3.4130   12.4790    3.6987 C   0  0  1  0  0  0  0  0  0  0  0  0
    2.2691   12.1210    1.9820 I   0  0  0  0  0  0  0  0  0  0  0  0
    3.5998   11.3417    4.6193 C   0  0  0  0  0  0  0  0  0  0  0  0
    4.8556   10.5634    4.3965 C   0  0  0  0  0  0  0  0  0  0  0  0
    4.6871    9.0942    4.2439 C   0  0  1  0  0  0  0  0  0  0  0  0
    4.7499    8.2474    5.4711 C   0  0  2  0  0  0  0  0  0  0  0  0
    5.1823    6.9634    5.1310 O   0  0  0  0  0  0  0  0  0  0  0  0
    3.3412    8.2894    5.5409 O   0  0  0  0  0  0  0  0  0  0  0  0
    3.3024    8.5430    4.1656 C   0  0  2  0  0  0  0  0  0  0  0  0
    3.4184    7.1699    3.4888 C   0  0  0  0  0  0  0  0  0  0  0  0
    4.7103    6.5355    3.9130 C   0  0  0  0  0  3  0  0  0  0  0  0
  1  2  1  0
  2  3  1  0
  2  4  1  0
  4  5  1  0
  5  6  1  0
  6  7  1  0
  7  8  1  1
  7  9  1  0
  9 10  1  0
 10 11  1  0
 11 12  1  0
 12 13  1  6
 12 14  1  0
 14 15  1  0
 15 16  1  1
 15 17  1  0
 17 18  1  0
 18 19  1  0
 19 20  1  6
 19 21  1  0
 21 22  1  0
 23 22  1  1
 23 24  1  0
 24 25  1  6
 24 26  1  0
 26 27  1  0
 27 28  1  6
 28 29  1  0
 27 23  1  0
 29 25  1  0
M  RAD  2   9   2  29   2
M  END
>  <docking_score>  (3) 
-1.2669999999999999

$$$$
