
     RDKit          3D

 25 26  0  0  0  0  0  0  0  0999 V2000
   14.6608   -0.0538   -5.4955 C   0  0  0  0  0  0  0  0  0  0  0  0
   14.9779   -1.3494   -6.1658 C   0  0  1  0  0  0  0  0  0  0  0  0
   16.4659   -1.5202   -6.4330 C   0  0  2  0  0  0  0  0  0  0  0  0
   16.6112   -2.6813   -7.3805 C   0  0  2  0  0  0  0  0  0  0  0  0
   16.2108   -2.3675   -8.6780 O   0  0  0  0  0  0  0  0  0  0  0  0
   16.0062   -3.9464   -6.8692 C   0  0  2  0  0  0  0  0  0  0  0  0
   15.8211   -4.8014   -7.9600 O   0  0  0  0  0  0  0  0  0  0  0  0
   14.7158   -3.7986   -6.1636 C   0  0  1  0  0  0  0  0  0  0  0  0
   14.5619   -4.8931   -5.2901 O   0  0  0  0  0  0  0  0  0  0  0  0
   14.5395   -2.5546   -5.3767 C   0  0  1  0  0  0  0  0  0  0  0  0
   15.1403   -2.6223   -4.0708 N   0  0  0  0  0  0  0  0  0  0  0  0
   16.3103   -1.7783   -3.9481 C   0  0  0  0  0  3  0  0  0  0  0  0
   17.2043   -1.8671   -5.1602 C   0  0  1  0  0  0  0  0  0  0  0  0
   17.8779   -3.2179   -5.2637 C   0  0  1  0  0  0  0  0  0  0  0  0
   19.3623   -2.9326   -5.5244 C   0  0  0  0  0  0  0  0  0  0  0  0
   19.8811   -3.7581   -6.6642 C   0  0  0  0  0  3  0  0  0  0  0  0
   20.1824   -2.9733   -7.7841 O   0  0  0  0  0  0  0  0  0  0  0  0
   17.8191   -3.8429   -4.0265 O   0  0  0  0  0  0  0  0  0  0  0  0
   17.8351   -5.2306   -4.1659 C   0  0  0  0  0  0  0  0  0  0  0  0
   19.0191   -5.7898   -3.7366 O   0  0  0  0  0  0  0  0  0  0  0  0
   18.8853   -7.1788   -3.8440 C   0  0  0  0  0  3  0  0  0  0  0  0
   17.9841   -7.5527   -4.9765 C   0  0  0  0  0  3  0  0  0  0  0  0
   18.7008   -8.3253   -6.0531 C   0  0  0  0  0  3  0  0  0  0  0  0
   17.7396   -8.6556   -7.0224 O   0  0  0  0  0  0  0  0  0  0  0  0
   17.5959   -7.6179   -7.8314 O   0  0  0  0  0  0  0  0  0  0  0  0
  2  1  1  1
  2  3  1  0
  3  4  1  6
  4  5  1  6
  4  6  1  0
  6  7  1  6
  6  8  1  0
  8  9  1  1
  8 10  1  0
 10 11  1  1
 11 12  1  0
 13 12  1  1
 13 14  1  0
 14 15  1  1
 15 16  1  0
 16 17  1  0
 14 18  1  0
 18 19  1  0
 19 20  1  0
 20 21  1  0
 21 22  1  0
 22 23  1  0
 23 24  1  0
 24 25  1  0
 10  2  1  0
 13  3  1  0
M  RAD  5  12   2  16   2  21   2  22   2  23   2
M  END
>  <docking_score>  (1) 
-3.738

$$$$

     RDKit          3D

 25 26  0  0  0  0  0  0  0  0999 V2000
   14.0985   -5.4895   -5.7176 C   0  0  0  0  0  0  0  0  0  0  0  0
   15.4667   -6.0794   -5.8095 C   0  0  1  0  0  0  0  0  0  0  0  0
   16.3357   -5.3813   -6.8449 C   0  0  2  0  0  0  0  0  0  0  0  0
   17.5411   -6.2557   -7.0676 C   0  0  2  0  0  0  0  0  0  0  0  0
   17.2427   -7.4034   -7.7995 O   0  0  0  0  0  0  0  0  0  0  0  0
   18.3102   -6.5384   -5.8200 C   0  0  2  0  0  0  0  0  0  0  0  0
   19.1123   -7.6586   -6.0587 O   0  0  0  0  0  0  0  0  0  0  0  0
   17.4978   -6.7910   -4.6113 C   0  0  1  0  0  0  0  0  0  0  0  0
   18.2797   -6.4822   -3.4809 O   0  0  0  0  0  0  0  0  0  0  0  0
   16.2253   -6.0372   -4.5094 C   0  0  1  0  0  0  0  0  0  0  0  0
   16.3987   -4.7020   -4.0013 N   0  0  0  0  0  0  0  0  0  0  0  0
   16.1808   -3.6861   -5.0096 C   0  0  0  0  0  3  0  0  0  0  0  0
   16.8220   -4.0469   -6.3269 C   0  0  1  0  0  0  0  0  0  0  0  0
   18.3323   -4.0029   -6.2473 C   0  0  1  0  0  0  0  0  0  0  0  0
   18.7852   -3.0130   -7.3280 C   0  0  0  0  0  0  0  0  0  0  0  0
   19.3366   -3.7308   -8.5240 C   0  0  0  0  0  3  0  0  0  0  0  0
   20.4454   -4.5204   -8.1952 O   0  0  0  0  0  0  0  0  0  0  0  0
   18.6999   -3.4404   -5.0336 O   0  0  0  0  0  0  0  0  0  0  0  0
   20.0742   -3.5558   -4.8247 C   0  0  0  0  0  0  0  0  0  0  0  0
   20.4936   -2.8863   -3.6957 O   0  0  0  0  0  0  0  0  0  0  0  0
   20.3224   -3.7540   -2.6108 C   0  0  0  0  0  3  0  0  0  0  0  0
   19.4553   -3.1434   -1.5574 C   0  0  0  0  0  3  0  0  0  0  0  0
   19.4933   -1.6375   -1.5804 C   0  0  0  0  0  3  0  0  0  0  0  0
   18.2548   -1.2089   -2.0853 O   0  0  0  0  0  0  0  0  0  0  0  0
   17.3920   -2.2050   -1.9622 O   0  0  0  0  0  0  0  0  0  0  0  0
  2  1  1  1
  2  3  1  0
  3  4  1  1
  4  5  1  1
  4  6  1  0
  6  7  1  6
  6  8  1  0
  8  9  1  1
  8 10  1  0
 10 11  1  6
 11 12  1  0
 13 12  1  1
 13 14  1  0
 14 15  1  6
 15 16  1  0
 16 17  1  0
 14 18  1  0
 18 19  1  0
 19 20  1  0
 20 21  1  0
 21 22  1  0
 22 23  1  0
 23 24  1  0
 24 25  1  0
 10  2  1  0
 13  3  1  0
M  RAD  5  12   2  16   2  21   2  22   2  23   2
M  END
>  <docking_score>  (2) 
-3.407

$$$$

     RDKit          3D

 25 26  0  0  0  0  0  0  0  0999 V2000
   16.3728   -4.5486   -1.6888 C   0  0  0  0  0  0  0  0  0  0  0  0
   16.7536   -4.9398   -3.0782 C   0  0  1  0  0  0  0  0  0  0  0  0
   15.8203   -4.3536   -4.1270 C   0  0  2  0  0  0  0  0  0  0  0  0
   16.1069   -5.0708   -5.4194 C   0  0  2  0  0  0  0  0  0  0  0  0
   15.6199   -6.3765   -5.4272 O   0  0  0  0  0  0  0  0  0  0  0  0
   17.5325   -4.9734   -5.8510 C   0  0  2  0  0  0  0  0  0  0  0  0
   17.7662   -5.9902   -6.7819 O   0  0  0  0  0  0  0  0  0  0  0  0
   18.5364   -5.0844   -4.7718 C   0  0  1  0  0  0  0  0  0  0  0  0
   19.7138   -4.4373   -5.1953 O   0  0  0  0  0  0  0  0  0  0  0  0
   18.1488   -4.5187   -3.4574 C   0  0  1  0  0  0  0  0  0  0  0  0
   18.3506   -3.0963   -3.3728 N   0  0  0  0  0  0  0  0  0  0  0  0
   17.1074   -2.3548   -3.3432 C   0  0  0  0  0  3  0  0  0  0  0  0
   16.1064   -2.8846   -4.3402 C   0  0  1  0  0  0  0  0  0  0  0  0
   16.5317   -2.6063   -5.7653 C   0  0  1  0  0  0  0  0  0  0  0  0
   15.2793   -2.0973   -6.4898 C   0  0  0  0  0  0  0  0  0  0  0  0
   15.3719   -2.3385   -7.9673 C   0  0  0  0  0  3  0  0  0  0  0  0
   16.2765   -3.3624   -8.2746 O   0  0  0  0  0  0  0  0  0  0  0  0
   17.4309   -1.5498   -5.7654 O   0  0  0  0  0  0  0  0  0  0  0  0
   18.4700   -1.7775   -6.6675 C   0  0  0  0  0  0  0  0  0  0  0  0
   19.6398   -1.1532   -6.2925 O   0  0  0  0  0  0  0  0  0  0  0  0
   19.3123   -0.2154   -5.3065 C   0  0  0  0  0  3  0  0  0  0  0  0
   20.5150    0.1817   -4.5126 C   0  0  0  0  0  3  0  0  0  0  0  0
   20.3004    0.0361   -3.0285 C   0  0  0  0  0  3  0  0  0  0  0  0
   21.3825   -0.7105   -2.5344 O   0  0  0  0  0  0  0  0  0  0  0  0
   20.9936   -1.9697   -2.4125 O   0  0  0  0  0  0  0  0  0  0  0  0
  2  1  1  1
  2  3  1  0
  3  4  1  6
  4  5  1  1
  4  6  1  0
  6  7  1  6
  6  8  1  0
  8  9  1  6
  8 10  1  0
 10 11  1  6
 11 12  1  0
 13 12  1  1
 13 14  1  0
 14 15  1  6
 15 16  1  0
 16 17  1  0
 14 18  1  0
 18 19  1  0
 19 20  1  0
 20 21  1  0
 21 22  1  0
 22 23  1  0
 23 24  1  0
 24 25  1  0
 10  2  1  0
 13  3  1  0
M  RAD  5  12   2  16   2  21   2  22   2  23   2
M  END
>  <docking_score>  (3) 
-3.2850000000000001

$$$$
