
     RDKit          3D

 25 25  0  0  0  0  0  0  0  0999 V2000
    6.3694    9.1816    5.4808 C   0  0  0  0  0  0  0  0  0  0  0  0
    5.4878    9.1668    4.2445 C   0  0  1  0  0  0  0  0  0  0  0  0
    4.4136    8.1312    4.4777 C   0  0  0  0  0  0  0  0  0  0  0  0
    3.1193    8.4867    3.8021 C   0  0  2  0  0  0  0  0  0  0  0  0
    3.1620    8.3063    2.4201 O   0  0  0  0  0  0  0  0  0  0  0  0
    2.5912    9.8417    4.1836 C   0  0  2  0  0  0  0  0  0  0  0  0
    2.3753   10.5906    3.0072 O   0  0  0  0  0  0  0  0  0  0  0  0
    3.6675   10.6088    4.9592 C   0  0  1  0  0  0  0  0  0  0  0  0
    3.9581    9.8226    6.0895 O   0  0  0  0  0  0  0  0  0  0  0  0
    4.9144   10.5524    4.0854 C   0  0  1  0  0  0  0  0  0  0  0  0
    5.8427   11.5945    4.4295 N   0  0  0  0  0  0  0  0  0  0  0  0
    6.6515   11.9355    3.3075 C   0  0  0  0  0  3  0  0  0  0  0  0
    8.0305   12.4097    3.6161 C   0  0  0  0  0  0  0  0  0  0  0  0
    8.1929   13.9045    3.5614 C   0  0  2  0  0  0  0  0  0  0  0  0
    7.2708   14.4945    2.6873 O   0  0  0  0  0  0  0  0  0  0  0  0
    9.5851   14.2149    3.0518 C   0  0  0  0  0  0  0  0  0  0  0  0
    9.5449   14.9791    1.8856 O   0  0  0  0  0  0  0  0  0  0  0  0
    7.9628   14.5416    4.9133 C   0  0  1  0  0  0  0  0  0  0  0  0
    9.0998   15.2998    5.2016 O   0  0  0  0  0  0  0  0  0  0  0  0
    6.8458   15.3642    4.9335 O   0  0  0  0  0  0  0  0  0  0  0  0
    5.8914   14.9558    5.8301 C   0  0  0  0  0  0  0  0  0  0  0  0
    6.5500   14.2316    6.9102 N   0  0  0  0  0  0  0  0  0  0  0  0
    5.7847   14.4116    8.1512 C   0  0  0  0  0  3  0  0  0  0  0  0
    4.8801   13.2303    8.3821 C   0  0  0  0  0  0  0  0  0  0  0  0
    5.1700   12.1624    7.5616 F   0  0  0  0  0  0  0  0  0  0  0  0
  2  1  1  1
  2  3  1  0
  3  4  1  0
  4  5  1  6
  4  6  1  0
  6  7  1  6
  6  8  1  0
  8  9  1  1
  8 10  1  0
 10 11  1  1
 11 12  1  0
 12 13  1  0
 13 14  1  0
 14 15  1  6
 14 16  1  0
 16 17  1  0
 14 18  1  0
 18 19  1  6
 18 20  1  0
 20 21  1  0
 21 22  1  0
 22 23  1  0
 23 24  1  0
 24 25  1  0
 10  2  1  0
M  RAD  2  12   2  23   2
M  END
>  <docking_score>  (1) 
-3.21

$$$$

     RDKit          3D

 25 25  0  0  0  0  0  0  0  0999 V2000
    3.6058    8.2411    3.3203 C   0  0  0  0  0  0  0  0  0  0  0  0
    3.4453    9.6886    3.7504 C   0  0  1  0  0  0  0  0  0  0  0  0
    2.3013    9.7348    4.7351 C   0  0  0  0  0  0  0  0  0  0  0  0
    2.4804   10.8086    5.7710 C   0  0  2  0  0  0  0  0  0  0  0  0
    2.2576   12.0897    5.2676 O   0  0  0  0  0  0  0  0  0  0  0  0
    3.7779   10.7105    6.5244 C   0  0  2  0  0  0  0  0  0  0  0  0
    4.4548   11.9445    6.4221 O   0  0  0  0  0  0  0  0  0  0  0  0
    4.6913    9.6902    5.8364 C   0  0  1  0  0  0  0  0  0  0  0  0
    3.9844    8.4736    5.8498 O   0  0  0  0  0  0  0  0  0  0  0  0
    4.7488   10.1182    4.3752 C   0  0  1  0  0  0  0  0  0  0  0  0
    5.9029    9.5725    3.7147 N   0  0  0  0  0  0  0  0  0  0  0  0
    6.6507   10.6046    3.0785 C   0  0  0  0  0  3  0  0  0  0  0  0
    6.6746   11.9206    3.7781 C   0  0  0  0  0  0  0  0  0  0  0  0
    6.3881   13.0968    2.8846 C   0  0  2  0  0  0  0  0  0  0  0  0
    5.0643   13.5362    3.0143 O   0  0  0  0  0  0  0  0  0  0  0  0
    6.5995   12.6670    1.4476 C   0  0  0  0  0  0  0  0  0  0  0  0
    7.4157   13.5647    0.7595 O   0  0  0  0  0  0  0  0  0  0  0  0
    7.2633   14.2824    3.2235 C   0  0  1  0  0  0  0  0  0  0  0  0
    6.4520   15.2080    3.8837 O   0  0  0  0  0  0  0  0  0  0  0  0
    8.3307   13.9424    4.0419 O   0  0  0  0  0  0  0  0  0  0  0  0
    9.1832   14.9904    4.2796 C   0  0  0  0  0  0  0  0  0  0  0  0
    9.0181   15.4172    5.6636 N   0  0  0  0  0  0  0  0  0  0  0  0
   10.3412   15.6163    6.2702 C   0  0  0  0  0  3  0  0  0  0  0  0
   10.2331   15.6091    7.7720 C   0  0  0  0  0  0  0  0  0  0  0  0
    8.9310   15.6716    8.2177 F   0  0  0  0  0  0  0  0  0  0  0  0
  2  1  1  1
  2  3  1  0
  3  4  1  0
  4  5  1  6
  4  6  1  0
  6  7  1  6
  6  8  1  0
  8  9  1  6
  8 10  1  0
 10 11  1  6
 11 12  1  0
 12 13  1  0
 13 14  1  0
 14 15  1  6
 14 16  1  0
 16 17  1  0
 14 18  1  0
 18 19  1  1
 18 20  1  0
 20 21  1  0
 21 22  1  0
 22 23  1  0
 23 24  1  0
 24 25  1  0
 10  2  1  0
M  RAD  2  12   2  23   2
M  END
>  <docking_score>  (2) 
-3.0379999999999998

$$$$

     RDKit          3D

 25 25  0  0  0  0  0  0  0  0999 V2000
   16.4029   -4.1949   -1.2371 C   0  0  0  0  0  0  0  0  0  0  0  0
   16.6671   -3.5815   -2.6009 C   0  0  1  0  0  0  0  0  0  0  0  0
   17.2406   -2.2046   -2.3646 C   0  0  0  0  0  0  0  0  0  0  0  0
   18.2090   -1.7957   -3.4384 C   0  0  2  0  0  0  0  0  0  0  0  0
   17.5797   -1.4599   -4.6365 O   0  0  0  0  0  0  0  0  0  0  0  0
   19.3344   -2.7722   -3.6404 C   0  0  2  0  0  0  0  0  0  0  0  0
   19.3690   -3.1474   -5.0003 O   0  0  0  0  0  0  0  0  0  0  0  0
   19.0331   -4.0637   -2.8723 C   0  0  1  0  0  0  0  0  0  0  0  0
   18.9037   -3.6851   -1.5232 O   0  0  0  0  0  0  0  0  0  0  0  0
   17.6384   -4.4846   -3.3186 C   0  0  1  0  0  0  0  0  0  0  0  0
   17.4075   -5.8810   -3.0681 N   0  0  0  0  0  0  0  0  0  0  0  0
   17.9481   -6.6748   -4.1202 C   0  0  0  0  0  3  0  0  0  0  0  0
   17.1075   -6.7964   -5.3452 C   0  0  0  0  0  0  0  0  0  0  0  0
   17.8945   -6.8740   -6.6252 C   0  0  2  0  0  0  0  0  0  0  0  0
   17.7643   -8.1265   -7.2388 O   0  0  0  0  0  0  0  0  0  0  0  0
   19.3585   -6.6630   -6.2987 C   0  0  0  0  0  0  0  0  0  0  0  0
   19.8924   -5.5893   -7.0113 O   0  0  0  0  0  0  0  0  0  0  0  0
   17.4189   -5.8553   -7.6364 C   0  0  1  0  0  0  0  0  0  0  0  0
   18.2706   -5.9522   -8.7391 O   0  0  0  0  0  0  0  0  0  0  0  0
   16.1120   -6.0780   -8.0455 O   0  0  0  0  0  0  0  0  0  0  0  0
   15.3032   -4.9815   -7.8875 C   0  0  0  0  0  0  0  0  0  0  0  0
   16.0567   -3.9465   -7.1906 N   0  0  0  0  0  0  0  0  0  0  0  0
   15.1546   -2.8391   -6.8466 C   0  0  0  0  0  3  0  0  0  0  0  0
   14.6028   -3.0278   -5.4585 C   0  0  0  0  0  0  0  0  0  0  0  0
   13.6731   -4.0416   -5.3826 F   0  0  0  0  0  0  0  0  0  0  0  0
  2  1  1  1
  2  3  1  0
  3  4  1  0
  4  5  1  6
  4  6  1  0
  6  7  1  6
  6  8  1  0
  8  9  1  1
  8 10  1  0
 10 11  1  1
 11 12  1  0
 12 13  1  0
 13 14  1  0
 14 15  1  6
 14 16  1  0
 16 17  1  0
 14 18  1  0
 18 19  1  6
 18 20  1  0
 20 21  1  0
 21 22  1  0
 22 23  1  0
 23 24  1  0
 24 25  1  0
 10  2  1  0
M  RAD  2  12   2  23   2
M  END
>  <docking_score>  (3) 
-2.9750000000000001

$$$$
