
     RDKit          3D

 32 34  0  0  0  0  0  0  0  0999 V2000
    4.6809    9.1220    5.1547 C   0  0  0  0  0  0  0  0  0  0  0  0
    4.4746    7.8310    5.2842 C   0  0  0  0  0  0  0  0  0  0  0  0
    5.6373    6.9182    5.1038 C   0  0  0  0  0  0  0  0  0  0  0  0
    3.1423    7.2354    5.6012 C   0  0  0  0  0  3  0  0  0  0  0  0
    2.4675    8.0233    6.7231 C   0  0  0  0  0  0  0  0  0  0  0  0
    3.5696    8.8223    7.4128 C   0  0  0  0  0  0  0  0  0  0  0  0
    3.0705   10.0753    8.0414 C   0  0  0  0  0  3  0  0  0  0  0  0
    3.3374   10.0545    9.5322 C   0  0  0  0  0  0  0  0  0  0  0  0
    4.8074   10.3059    9.8004 C   0  0  0  0  0  0  0  0  0  0  0  0
    4.9531   10.7293   11.2357 C   0  0  0  0  0  0  0  0  0  0  0  0
    5.3725   12.1681   11.3828 C   0  0  0  0  0  0  0  0  0  0  0  0
    6.4401   12.2495   12.4654 C   0  0  0  0  0  3  0  0  0  0  0  0
    7.6531   12.9818   11.9204 C   0  0  0  0  0  0  0  0  0  0  0  0
    3.6821   11.3299    7.4862 C   0  0  2  0  0  0  0  0  0  0  0  0
    2.7437   12.5101    7.5789 C   0  0  0  0  0  0  0  0  0  0  0  0
    3.3662   13.5009    8.5419 C   0  0  2  0  0  0  0  0  0  0  0  0
    2.2584   14.4377    8.9869 C   0  0  0  0  0  0  0  0  0  0  0  0
    4.3833   14.3017    7.7248 C   0  0  0  0  0  3  0  0  0  0  0  0
    5.7748   14.1876    8.3397 C   0  0  0  0  0  3  0  0  0  0  0  0
    6.7569   14.5522    7.2448 C   0  0  0  0  0  3  0  0  0  0  0  0
    6.0988   14.4854    5.8763 C   0  0  0  0  0  0  0  0  0  0  0  0
    7.1308   14.0211    4.8971 C   0  0  0  0  0  0  0  0  0  0  0  0
    6.6551   14.1095    3.4613 C   0  0  0  0  0  3  0  0  0  0  0  0
    6.1009   12.8207    2.9477 C   0  0  0  0  0  0  0  0  0  0  0  0
    4.7369   12.5075    3.5317 C   0  0  0  0  0  0  0  0  0  0  0  0
    4.0324   11.4317    2.7710 C   0  0  1  0  0  0  0  0  0  0  0  0
    4.9603   10.4531    2.1234 C   0  0  0  0  0  0  0  0  0  0  0  0
    2.8099   10.5542    3.7534 S   0  0  0  0  0  0  0  0  0  0  0  0
    3.5128   10.0580    5.3347 C   0  0  2  0  0  0  0  0  0  0  0  0
    4.1435   11.1989    6.0686 C   0  0  2  0  0  0  0  0  0  0  0  0
    5.6216   11.1137    5.9035 C   0  0  0  0  0  0  0  0  0  0  0  0
    5.8440   10.0163    4.8528 C   0  0  0  0  0  3  0  0  0  0  0  0
  1  2  2  3
  2  3  1  0
  2  4  1  0
  4  5  1  0
  5  6  1  0
  6  7  1  0
  7  8  1  0
  8  9  1  0
  9 10  1  0
 10 11  1  0
 11 12  1  0
 12 13  1  0
  7 14  1  0
 14 15  1  6
 15 16  1  0
 16 17  1  6
 16 18  1  0
 18 19  1  0
 19 20  1  0
 20 21  1  0
 21 22  1  0
 22 23  1  0
 23 24  1  0
 24 25  1  0
 25 26  1  0
 26 27  1  1
 26 28  1  0
 29 28  1  6
 29 30  1  0
 30 31  1  1
 31 32  1  0
 29  1  1  0
 32  1  1  0
 30 14  1  0
M  RAD  8   4   2   7   2  12   2  18   2  19   2  20   2  23   2  32   2
M  END
>  <docking_score>  (1) 
-4.2720000000000002

$$$$

     RDKit          3D

 32 34  0  0  0  0  0  0  0  0999 V2000
    4.4146    9.6376    5.7656 C   0  0  0  0  0  0  0  0  0  0  0  0
    4.1934    8.3426    5.7729 C   0  0  0  0  0  0  0  0  0  0  0  0
    5.2120    7.4584    5.1420 C   0  0  0  0  0  0  0  0  0  0  0  0
    2.9804    7.7155    6.3776 C   0  0  0  0  0  3  0  0  0  0  0  0
    2.6915    8.3383    7.7428 C   0  0  0  0  0  0  0  0  0  0  0  0
    3.9809    9.0237    8.1861 C   0  0  0  0  0  0  0  0  0  0  0  0
    3.7413   10.1765    9.0960 C   0  0  0  0  0  3  0  0  0  0  0  0
    4.4212    9.9405   10.4288 C   0  0  0  0  0  0  0  0  0  0  0  0
    3.7036    8.8455   11.1916 C   0  0  0  0  0  0  0  0  0  0  0  0
    3.7175    9.2083   12.6506 C   0  0  0  0  0  0  0  0  0  0  0  0
    4.6289   10.3669   12.9580 C   0  0  0  0  0  0  0  0  0  0  0  0
    3.7731   11.6080   13.1726 C   0  0  0  0  0  3  0  0  0  0  0  0
    3.5833   11.8356   14.6616 C   0  0  0  0  0  0  0  0  0  0  0  0
    4.2274   11.4941    8.5632 C   0  0  2  0  0  0  0  0  0  0  0  0
    3.4110   12.6543    9.0824 C   0  0  0  0  0  0  0  0  0  0  0  0
    4.3282   13.4930    9.9494 C   0  0  2  0  0  0  0  0  0  0  0  0
    3.4387   14.3629   10.8184 C   0  0  0  0  0  0  0  0  0  0  0  0
    5.1064   14.3969    8.9897 C   0  0  0  0  0  3  0  0  0  0  0  0
    6.6085   14.1876    9.1547 C   0  0  0  0  0  3  0  0  0  0  0  0
    7.2534   14.6996    7.8826 C   0  0  0  0  0  3  0  0  0  0  0  0
    6.2299   14.8336    6.7669 C   0  0  0  0  0  0  0  0  0  0  0  0
    6.9166   14.5086    5.4776 C   0  0  0  0  0  0  0  0  0  0  0  0
    6.0557   14.8048    4.2666 C   0  0  0  0  0  3  0  0  0  0  0  0
    5.3181   13.6062    3.7653 C   0  0  0  0  0  0  0  0  0  0  0  0
    4.1643   13.2205    4.6705 C   0  0  0  0  0  0  0  0  0  0  0  0
    3.2223   12.2690    4.0074 C   0  0  1  0  0  0  0  0  0  0  0  0
    3.8798   11.3880    2.9928 C   0  0  0  0  0  0  0  0  0  0  0  0
    2.2910   11.2668    5.1727 S   0  0  0  0  0  0  0  0  0  0  0  0
    3.3917   10.5449    6.4008 C   0  0  2  0  0  0  0  0  0  0  0  0
    4.2585   11.5650    7.0687 C   0  0  2  0  0  0  0  0  0  0  0  0
    5.6224   11.4958    6.4734 C   0  0  0  0  0  0  0  0  0  0  0  0
    5.4840   10.5591    5.2646 C   0  0  0  0  0  3  0  0  0  0  0  0
  1  2  2  3
  2  3  1  0
  2  4  1  0
  4  5  1  0
  5  6  1  0
  6  7  1  0
  7  8  1  0
  8  9  1  0
  9 10  1  0
 10 11  1  0
 11 12  1  0
 12 13  1  0
  7 14  1  0
 14 15  1  6
 15 16  1  0
 16 17  1  1
 16 18  1  0
 18 19  1  0
 19 20  1  0
 20 21  1  0
 21 22  1  0
 22 23  1  0
 23 24  1  0
 24 25  1  0
 25 26  1  0
 26 27  1  6
 26 28  1  0
 29 28  1  6
 29 30  1  0
 30 31  1  6
 31 32  1  0
 29  1  1  0
 32  1  1  0
 30 14  1  0
M  RAD  8   4   2   7   2  12   2  18   2  19   2  20   2  23   2  32   2
M  END
>  <docking_score>  (2) 
-3.254

$$$$

     RDKit          3D

 32 34  0  0  0  0  0  0  0  0999 V2000
    6.5412   13.5948   12.1323 C   0  0  0  0  0  0  0  0  0  0  0  0
    7.4622   14.5116   12.3255 C   0  0  0  0  0  0  0  0  0  0  0  0
    8.7525   14.0854   12.9345 C   0  0  0  0  0  0  0  0  0  0  0  0
    7.2827   15.9504   11.9677 C   0  0  0  0  0  3  0  0  0  0  0  0
    6.6562   16.0730   10.5795 C   0  0  0  0  0  0  0  0  0  0  0  0
    6.8692   14.7287    9.8894 C   0  0  0  0  0  0  0  0  0  0  0  0
    5.8261   14.4276    8.8719 C   0  0  0  0  0  3  0  0  0  0  0  0
    6.4608   14.2573    7.5072 C   0  0  0  0  0  0  0  0  0  0  0  0
    6.2625   15.5123    6.6816 C   0  0  0  0  0  0  0  0  0  0  0  0
    6.8784   15.2825    5.3295 C   0  0  0  0  0  0  0  0  0  0  0  0
    6.4300   13.9938    4.6923 C   0  0  0  0  0  0  0  0  0  0  0  0
    7.4149   13.6354    3.5878 C   0  0  0  0  0  3  0  0  0  0  0  0
    8.7776   14.2150    3.9226 C   0  0  0  0  0  0  0  0  0  0  0  0
    5.0234   13.1909    9.1589 C   0  0  2  0  0  0  0  0  0  0  0  0
    3.6237   13.2775    8.5974 C   0  0  0  0  0  0  0  0  0  0  0  0
    3.5095   12.2204    7.5176 C   0  0  2  0  0  0  0  0  0  0  0  0
    2.3146   12.5943    6.6600 C   0  0  0  0  0  0  0  0  0  0  0  0
    3.1983   10.9084    8.2423 C   0  0  0  0  0  3  0  0  0  0  0  0
    4.2514    9.8533    7.9181 C   0  0  0  0  0  3  0  0  0  0  0  0
    4.1690    8.8152    9.0188 C   0  0  0  0  0  3  0  0  0  0  0  0
    3.4237    9.3582   10.2272 C   0  0  0  0  0  0  0  0  0  0  0  0
    4.0439    8.7606   11.4510 C   0  0  0  0  0  0  0  0  0  0  0  0
    3.2589    9.0636   12.7109 C   0  0  0  0  0  3  0  0  0  0  0  0
    3.7823   10.2477   13.4564 C   0  0  0  0  0  0  0  0  0  0  0  0
    3.4521   11.5557   12.7638 C   0  0  0  0  0  0  0  0  0  0  0  0
    3.6502   12.7336   13.6612 C   0  0  1  0  0  0  0  0  0  0  0  0
    4.7136   12.5259   14.6928 C   0  0  0  0  0  0  0  0  0  0  0  0
    3.9589   14.2615   12.7668 S   0  0  0  0  0  0  0  0  0  0  0  0
    5.2298   14.0120   11.5165 C   0  0  2  0  0  0  0  0  0  0  0  0
    4.9323   12.8561   10.6146 C   0  0  2  0  0  0  0  0  0  0  0  0
    5.7648   11.6950   11.0366 C   0  0  0  0  0  0  0  0  0  0  0  0
    6.4016   12.1219   12.3670 C   0  0  0  0  0  3  0  0  0  0  0  0
  1  2  2  3
  2  3  1  0
  2  4  1  0
  4  5  1  0
  5  6  1  0
  6  7  1  0
  7  8  1  0
  8  9  1  0
  9 10  1  0
 10 11  1  0
 11 12  1  0
 12 13  1  0
  7 14  1  0
 14 15  1  1
 15 16  1  0
 16 17  1  6
 16 18  1  0
 18 19  1  0
 19 20  1  0
 20 21  1  0
 21 22  1  0
 22 23  1  0
 23 24  1  0
 24 25  1  0
 25 26  1  0
 26 27  1  1
 26 28  1  0
 29 28  1  1
 29 30  1  0
 30 31  1  1
 31 32  1  0
 29  1  1  0
 32  1  1  0
 30 14  1  0
M  RAD  8   4   2   7   2  12   2  18   2  19   2  20   2  23   2  32   2
M  END
>  <docking_score>  (3) 
-3.1589999999999998

$$$$
