
     RDKit          3D

 18 18  0  0  0  0  0  0  0  0999 V2000
   17.2735   -9.0879   -5.7050 C   0  0  0  0  0  0  0  0  0  0  0  0
   17.4248   -8.0905   -6.6708 O   0  0  0  0  0  0  0  0  0  0  0  0
   17.5622   -6.8693   -5.9750 C   0  0  0  0  0  3  0  0  0  0  0  0
   16.2813   -6.3086   -5.9329 O   0  0  0  0  0  0  0  0  0  0  0  0
   16.2716   -5.0268   -6.4863 C   0  0  2  0  0  0  0  0  0  0  0  0
   17.6900   -4.4799   -6.3252 C   0  0  0  0  0  0  0  0  0  0  0  0
   15.3276   -4.2022   -5.6597 C   0  0  0  0  0  3  0  0  0  0  0  0
   15.8869   -2.8412   -5.2990 C   0  0  1  0  0  0  0  0  0  0  0  0
   15.3179   -1.7974   -6.1361 N   0  0  0  0  0  0  0  0  0  0  0  0
   14.3911   -0.9682   -5.3701 C   0  0  0  0  0  2  0  0  0  0  0  0
   15.5280   -2.6321   -3.8431 C   0  0  0  0  0  0  0  0  0  0  0  0
   16.5676   -2.9703   -2.8805 C   0  0  2  0  0  0  0  0  0  0  0  0
   16.4902   -4.2282   -2.1347 C   0  0  0  0  0  0  0  0  0  0  0  0
   17.5246   -5.2162   -2.6323 C   0  0  0  0  0  3  0  0  0  0  0  0
   18.9399   -4.7196   -2.4476 C   0  0  0  0  0  0  0  0  0  0  0  0
   19.1304   -3.3118   -2.9669 C   0  0  0  0  0  3  0  0  0  0  0  0
   18.6914   -2.4081   -2.0032 O   0  0  0  0  0  0  0  0  0  0  0  0
   17.4332   -1.8954   -2.3642 C   0  0  0  0  0  3  0  0  0  0  0  0
  1  2  1  0
  2  3  1  0
  3  4  1  0
  4  5  1  0
  5  6  1  1
  5  7  1  0
  8  7  1  6
  8  9  1  0
  9 10  1  0
  8 11  1  0
 12 11  1  1
 12 13  1  0
 13 14  1  0
 14 15  1  0
 15 16  1  0
 16 17  1  0
 12 18  1  0
 18 17  1  0
M  RAD  6   3   2   7   2  10   3  14   2  16   2  18   2
M  END
>  <docking_score>  (1) 
-3.8079999999999998

$$$$

     RDKit          3D

 18 18  0  0  0  0  0  0  0  0999 V2000
   18.0769   -8.5662   -5.7825 C   0  0  0  0  0  0  0  0  0  0  0  0
   16.7807   -8.3273   -5.3208 O   0  0  0  0  0  0  0  0  0  0  0  0
   16.4754   -6.9868   -5.6438 C   0  0  0  0  0  3  0  0  0  0  0  0
   16.1031   -6.3801   -4.4397 O   0  0  0  0  0  0  0  0  0  0  0  0
   16.9280   -5.2929   -4.1445 C   0  0  2  0  0  0  0  0  0  0  0  0
   17.8312   -5.7402   -2.9950 C   0  0  0  0  0  0  0  0  0  0  0  0
   16.0344   -4.1845   -3.6677 C   0  0  0  0  0  3  0  0  0  0  0  0
   16.2606   -2.8802   -4.4045 C   0  0  1  0  0  0  0  0  0  0  0  0
   15.0348   -2.4045   -5.0252 N   0  0  0  0  0  0  0  0  0  0  0  0
   14.1541   -3.5225   -5.3537 C   0  0  0  0  0  2  0  0  0  0  0  0
   16.7569   -1.9071   -3.3561 C   0  0  0  0  0  0  0  0  0  0  0  0
   18.2034   -1.7666   -3.2580 C   0  0  2  0  0  0  0  0  0  0  0  0
   18.8332   -1.6027   -1.9461 C   0  0  0  0  0  0  0  0  0  0  0  0
   19.5712   -2.8612   -1.5397 C   0  0  0  0  0  3  0  0  0  0  0  0
   20.6936   -3.2101   -2.4897 C   0  0  0  0  0  0  0  0  0  0  0  0
   20.2522   -3.1927   -3.9364 C   0  0  0  0  0  3  0  0  0  0  0  0
   20.2709   -1.8809   -4.4020 O   0  0  0  0  0  0  0  0  0  0  0  0
   18.9610   -1.3735   -4.4591 C   0  0  0  0  0  3  0  0  0  0  0  0
  1  2  1  0
  2  3  1  0
  3  4  1  0
  4  5  1  0
  5  6  1  1
  5  7  1  0
  8  7  1  1
  8  9  1  0
  9 10  1  0
  8 11  1  0
 12 11  1  1
 12 13  1  0
 13 14  1  0
 14 15  1  0
 15 16  1  0
 16 17  1  0
 12 18  1  0
 18 17  1  0
M  RAD  6   3   2   7   2  10   3  14   2  16   2  18   2
M  END
>  <docking_score>  (2) 
-3.5190000000000001

$$$$

     RDKit          3D

 18 18  0  0  0  0  0  0  0  0999 V2000
   20.3344   -0.4794   -4.8252 C   0  0  0  0  0  0  0  0  0  0  0  0
   19.0228   -0.3781   -5.2941 O   0  0  0  0  0  0  0  0  0  0  0  0
   18.6230   -1.6806   -5.6660 C   0  0  0  0  0  3  0  0  0  0  0  0
   17.7124   -1.5146   -6.7149 O   0  0  0  0  0  0  0  0  0  0  0  0
   16.5242   -2.2048   -6.4674 C   0  0  2  0  0  0  0  0  0  0  0  0
   15.6655   -1.2827   -5.6017 C   0  0  0  0  0  0  0  0  0  0  0  0
   16.8874   -3.4281   -5.6763 C   0  0  0  0  0  3  0  0  0  0  0  0
   15.6797   -4.2216   -5.2210 C   0  0  1  0  0  0  0  0  0  0  0  0
   14.8294   -4.5810   -6.3443 N   0  0  0  0  0  0  0  0  0  0  0  0
   13.8748   -5.6172   -5.9594 C   0  0  0  0  0  2  0  0  0  0  0  0
   16.2406   -5.4535   -4.5426 C   0  0  0  0  0  0  0  0  0  0  0  0
   16.9961   -5.2138   -3.3205 C   0  0  2  0  0  0  0  0  0  0  0  0
   18.2096   -5.9874   -3.0492 C   0  0  0  0  0  0  0  0  0  0  0  0
   19.4465   -5.1304   -3.2204 C   0  0  0  0  0  3  0  0  0  0  0  0
   19.4838   -3.9639   -2.2602 C   0  0  0  0  0  0  0  0  0  0  0  0
   18.1882   -3.1834   -2.2490 C   0  0  0  0  0  3  0  0  0  0  0  0
   17.2744   -3.8304   -1.4217 O   0  0  0  0  0  0  0  0  0  0  0  0
   16.3320   -4.5257   -2.1995 C   0  0  0  0  0  3  0  0  0  0  0  0
  1  2  1  0
  2  3  1  0
  3  4  1  0
  4  5  1  0
  5  6  1  1
  5  7  1  0
  8  7  1  6
  8  9  1  0
  9 10  1  0
  8 11  1  0
 12 11  1  1
 12 13  1  0
 13 14  1  0
 14 15  1  0
 15 16  1  0
 16 17  1  0
 12 18  1  0
 18 17  1  0
M  RAD  6   3   2   7   2  10   3  14   2  16   2  18   2
M  END
>  <docking_score>  (3) 
-3.3570000000000002

$$$$
