
     RDKit          3D

 37 39  0  0  0  0  0  0  0  0999 V2000
   12.1870   13.7654   13.7769 C   0  0  0  0  0  0  0  0  0  0  0  0
   12.1281   12.6586   13.0783 C   0  0  0  0  0  0  0  0  0  0  0  0
   11.7154   12.3551   11.7057 C   0  0  0  0  0  0  0  0  0  0  0  0
   12.1529   11.2512   11.3030 O   0  0  0  0  0  0  0  0  0  0  0  0
   10.9355   13.0675   10.7874 O   0  0  0  0  0  0  0  0  0  0  0  0
   10.0953   14.2279   10.8502 C   0  0  1  0  0  0  0  0  0  0  0  0
    8.9764   14.1360    9.8366 C   0  0  0  0  0  0  0  0  0  0  0  0
    7.8117   15.0362   10.2147 C   0  0  1  0  0  0  0  0  0  0  0  0
    7.2146   15.6942    8.9980 C   0  0  0  0  0  0  0  0  0  0  0  0
    6.8170   14.1779   10.9613 C   0  0  1  0  0  0  0  0  0  0  0  0
    7.5420   13.3972   12.0103 C   0  0  0  0  0  0  0  0  0  0  0  0
    6.6162   12.3592   12.5772 C   0  0  0  0  0  0  0  0  0  0  0  0
    5.3087   12.9975   13.0023 C   0  0  0  0  0  3  0  0  0  0  0  0
    5.4313   13.7000   14.3098 C   0  0  0  0  0  0  0  0  0  0  0  0
    4.4664   13.5381   15.1800 C   0  0  0  0  0  0  0  0  0  0  0  0
    4.4888   14.1892   16.5061 C   0  0  0  0  0  0  0  0  0  0  0  0
    4.4634   13.4306   17.5902 C   0  0  0  0  0  0  0  0  0  0  0  0
    4.4833   14.0049   18.9729 C   0  0  0  0  0  0  0  0  0  0  0  0
    3.3935   13.4231   19.8109 C   0  0  1  0  0  0  0  0  0  0  0  0
    2.3054   14.3222   19.8254 O   0  0  0  0  0  0  0  0  0  0  0  0
    2.9582   12.0517   19.4191 C   0  0  0  0  0  0  0  0  0  0  0  0
    4.0342   11.2396   18.7376 C   0  0  2  0  0  0  0  0  0  0  0  0
    5.1282   11.0337   19.5743 O   0  0  0  0  0  0  0  0  0  0  0  0
    4.4143   11.9754   17.5027 C   0  0  0  0  0  0  0  0  0  0  0  0
    4.6979   11.3627   16.3696 C   0  0  0  0  0  0  0  0  0  0  0  0
    6.5746   14.5587   14.6659 C   0  0  0  0  0  0  0  0  0  0  0  0
    7.2045   15.2446   13.4953 C   0  0  0  0  0  0  0  0  0  0  0  0
    6.2221   15.9616   12.6156 C   0  0  0  0  0  0  0  0  0  0  0  0
    5.7115   14.9912   11.5779 C   0  0  1  0  0  0  0  0  0  0  0  0
    4.8338   15.6467   10.5555 C   0  0  0  0  0  2  0  0  0  0  0  0
    9.4246   14.1508   12.2276 C   0  0  0  0  0  0  0  0  0  0  0  0
   10.0903   15.4620   13.2625 S   0  0  0  0  0  2  0  0  0  0  0  0
   11.8657   15.1838   13.4902 C   0  0  1  0  0  0  0  0  0  0  0  0
   12.3197   16.0613   14.5406 N   0  0  0  0  0  2  0  0  0  0  0  0
   13.2448   15.4754   15.3543 O   0  0  0  0  0  0  0  0  0  0  0  0
   14.4482   15.0093   14.8187 C   0  0  0  0  0  0  0  0  0  0  0  0
   14.9371   15.5704   13.7892 O   0  0  0  0  0  0  0  0  0  0  0  0
  1  2  2  3
  2  3  1  0
  3  4  2  0
  3  5  1  0
  5  6  1  0
  6  7  1  6
  7  8  1  0
  8  9  1  6
  8 10  1  0
 10 11  1  1
 11 12  1  0
 12 13  1  0
 13 14  1  0
 14 15  2  0
 15 16  1  0
 16 17  2  0
 17 18  1  0
 18 19  1  0
 19 20  1  6
 19 21  1  0
 21 22  1  0
 22 23  1  1
 22 24  1  0
 24 25  2  0
 14 26  1  0
 26 27  1  0
 27 28  1  0
 28 29  1  0
 29 30  1  6
  6 31  1  0
 31 32  1  0
 32 33  1  0
 33 34  1  1
 34 35  1  0
 35 36  1  0
 36 37  2  0
 33  1  1  0
 29 10  1  0
 24 17  1  0
M  CHG  2  32   1  34   1
M  RAD  4  13   2  30   3  32   2  34   3
M  END
>  <docking_score>  (1) 
0.39000000000000001

$$$$

     RDKit          3D

 37 39  0  0  0  0  0  0  0  0999 V2000
    4.9454   10.5008    4.2692 C   0  0  0  0  0  0  0  0  0  0  0  0
    5.2806   11.5983    4.9013 C   0  0  0  0  0  0  0  0  0  0  0  0
    5.7616   11.8720    6.2577 C   0  0  0  0  0  0  0  0  0  0  0  0
    6.3173   12.9917    6.3561 O   0  0  0  0  0  0  0  0  0  0  0  0
    5.7096   11.1175    7.4355 O   0  0  0  0  0  0  0  0  0  0  0  0
    5.0367    9.9203    7.8482 C   0  0  1  0  0  0  0  0  0  0  0  0
    4.7445    9.9529    9.3318 C   0  0  0  0  0  0  0  0  0  0  0  0
    3.5744   10.8708    9.6454 C   0  0  1  0  0  0  0  0  0  0  0  0
    2.2590   10.1647    9.4433 C   0  0  0  0  0  0  0  0  0  0  0  0
    3.7643   11.3563   11.0638 C   0  0  1  0  0  0  0  0  0  0  0  0
    4.4716   10.2977   11.8476 C   0  0  0  0  0  0  0  0  0  0  0  0
    4.4332   10.6580   13.3052 C   0  0  0  0  0  0  0  0  0  0  0  0
    4.9207   12.0788   13.5080 C   0  0  0  0  0  3  0  0  0  0  0  0
    6.4062   12.1706   13.4550 C   0  0  0  0  0  0  0  0  0  0  0  0
    7.0021   12.9135   14.3537 C   0  0  0  0  0  0  0  0  0  0  0  0
    8.4705   13.0730   14.3908 C   0  0  0  0  0  0  0  0  0  0  0  0
    9.0660   13.7319   13.4098 C   0  0  0  0  0  0  0  0  0  0  0  0
   10.5481   13.9410   13.3665 C   0  0  0  0  0  0  0  0  0  0  0  0
   11.1063   13.5498   12.0385 C   0  0  1  0  0  0  0  0  0  0  0  0
   11.6405   12.2469   12.1387 O   0  0  0  0  0  0  0  0  0  0  0  0
   10.1548   13.6589   10.8955 C   0  0  0  0  0  0  0  0  0  0  0  0
    9.0777   14.6994   11.0934 C   0  0  2  0  0  0  0  0  0  0  0  0
    9.6166   15.9768   11.2232 O   0  0  0  0  0  0  0  0  0  0  0  0
    8.3074   14.2998   12.3008 C   0  0  0  0  0  0  0  0  0  0  0  0
    6.9990   14.4425   12.3882 C   0  0  0  0  0  0  0  0  0  0  0  0
    7.2273   11.4727   12.4500 C   0  0  0  0  0  0  0  0  0  0  0  0
    6.5386   11.2747   11.1370 C   0  0  0  0  0  0  0  0  0  0  0  0
    5.9250   12.5273   10.5823 C   0  0  0  0  0  0  0  0  0  0  0  0
    4.5223   12.6545   11.1256 C   0  0  1  0  0  0  0  0  0  0  0  0
    3.7676   13.7967   10.5164 C   0  0  0  0  0  2  0  0  0  0  0  0
    3.6732    9.9771    7.1478 C   0  0  0  0  0  0  0  0  0  0  0  0
    3.6292    8.7058    5.8769 S   0  0  0  0  0  2  0  0  0  0  0  0
    4.9053    9.0670    4.6431 C   0  0  1  0  0  0  0  0  0  0  0  0
    4.6686    8.2193    3.5009 N   0  0  0  0  0  2  0  0  0  0  0  0
    4.6056    6.8967    3.8294 O   0  0  0  0  0  0  0  0  0  0  0  0
    3.3746    6.3144    4.1423 C   0  0  0  0  0  0  0  0  0  0  0  0
    2.3311    6.6746    3.5137 O   0  0  0  0  0  0  0  0  0  0  0  0
  1  2  2  3
  2  3  1  0
  3  4  2  0
  3  5  1  0
  5  6  1  0
  6  7  1  1
  7  8  1  0
  8  9  1  1
  8 10  1  0
 10 11  1  1
 11 12  1  0
 12 13  1  0
 13 14  1  0
 14 15  2  0
 15 16  1  0
 16 17  2  0
 17 18  1  0
 18 19  1  0
 19 20  1  1
 19 21  1  0
 21 22  1  0
 22 23  1  1
 22 24  1  0
 24 25  2  0
 14 26  1  0
 26 27  1  0
 27 28  1  0
 28 29  1  0
 29 30  1  6
  6 31  1  0
 31 32  1  0
 32 33  1  0
 33 34  1  6
 34 35  1  0
 35 36  1  0
 36 37  2  0
 33  1  1  0
 29 10  1  0
 24 17  1  0
M  CHG  2  32   1  34   1
M  RAD  4  13   2  30   3  32   2  34   3
M  END
>  <docking_score>  (2) 
0.75

$$$$
