
     RDKit          3D

 25 26  0  0  0  0  0  0  0  0999 V2000
    4.1637   12.4846    6.6747 C   0  0  0  0  0  0  0  0  0  0  0  0
    3.7008   12.8747    7.9472 O   0  0  0  0  0  0  0  0  0  0  0  0
    2.6917   12.1963    8.5501 C   0  0  0  0  0  0  0  0  0  0  0  0
    2.7256   11.2900    9.4401 C   0  0  0  0  0  0  0  0  0  0  0  0
    3.8087   10.6533   10.1315 C   0  0  0  0  0  0  0  0  0  0  0  0
    4.2929    9.3883   10.1092 C   0  0  0  0  0  0  0  0  0  0  0  0
    3.8935    8.1804    9.3669 C   0  0  0  0  0  0  0  0  0  0  0  0
    3.5800    8.3150    8.0878 C   0  0  0  0  0  0  0  0  0  0  0  0
    3.1775    7.1743    7.2907 C   0  0  0  0  0  0  0  0  0  0  0  0
    3.0855    6.0458    7.8137 O   0  0  0  0  0  0  0  0  0  0  0  0
    2.8985    7.3464    5.9558 O   0  0  0  0  0  0  0  0  0  0  0  0
    3.3176    6.4650    4.9659 C   0  0  0  0  0  0  0  0  0  0  0  0
    4.2585    6.7528    4.1112 C   0  0  0  0  0  0  0  0  0  0  0  0
    4.9604    8.0263    4.1127 C   0  0  0  0  0  0  0  0  0  0  0  0
    5.7664    8.4251    5.1403 C   0  0  0  0  0  0  0  0  0  0  0  0
    6.3944    9.6420    5.0669 C   0  0  0  0  0  0  0  0  0  0  0  0
    6.2340   10.4668    3.9904 C   0  0  0  0  0  0  0  0  0  0  0  0
    5.4200   10.0832    2.9341 C   0  0  0  0  0  0  0  0  0  0  0  0
    4.7950    8.8541    3.0247 C   0  0  0  0  0  0  0  0  0  0  0  0
    5.2826    9.7966   11.0747 C   0  0  0  0  0  0  0  0  0  0  0  0
    4.8096   11.0508   11.1041 C   0  0  0  0  0  0  0  0  0  0  0  0
    5.2595   12.2498   11.8763 C   0  0  0  0  0  0  0  0  0  0  0  0
    6.3080   12.9924   11.0807 C   0  0  0  0  0  0  0  0  0  0  0  0
    7.5945   12.8739   11.8218 C   0  0  0  0  0  0  0  0  0  0  0  0
    7.7463   13.3228   13.0641 C   0  0  0  0  0  0  0  0  0  0  0  0
  1  2  1  0
  2  3  1  0
  3  4  2  3
  4  5  1  0
  5  6  2  0
  6  7  1  0
  7  8  2  3
  8  9  1  0
  9 10  2  0
  9 11  1  0
 11 12  1  0
 12 13  2  3
 13 14  1  0
 14 15  2  0
 15 16  1  0
 16 17  2  0
 17 18  1  0
 18 19  2  0
  6 20  1  0
 20 21  2  0
 21 22  1  0
 22 23  1  0
 23 24  1  0
 24 25  2  0
 21  5  1  0
 19 14  1  0
M  END
>  <docking_score>  (1) 
-3.9079999999999999

$$$$

     RDKit          3D

 25 26  0  0  0  0  0  0  0  0999 V2000
   20.9681   -0.4462   -7.2164 C   0  0  0  0  0  0  0  0  0  0  0  0
   20.3974   -1.4626   -6.4245 O   0  0  0  0  0  0  0  0  0  0  0  0
   19.7160   -1.1521   -5.2925 C   0  0  0  0  0  0  0  0  0  0  0  0
   18.4842   -1.2855   -5.0104 C   0  0  0  0  0  0  0  0  0  0  0  0
   17.3717   -1.8003   -5.7547 C   0  0  0  0  0  0  0  0  0  0  0  0
   17.2172   -2.9020   -6.5277 C   0  0  0  0  0  0  0  0  0  0  0  0
   18.1317   -3.9944   -6.9014 C   0  0  0  0  0  0  0  0  0  0  0  0
   17.6170   -5.0530   -7.5074 C   0  0  0  0  0  0  0  0  0  0  0  0
   18.4516   -6.1680   -7.9061 C   0  0  0  0  0  0  0  0  0  0  0  0
   19.3639   -6.0008   -8.7399 O   0  0  0  0  0  0  0  0  0  0  0  0
   18.2295   -7.4090   -7.3583 O   0  0  0  0  0  0  0  0  0  0  0  0
   17.1283   -7.7102   -6.5652 C   0  0  0  0  0  0  0  0  0  0  0  0
   17.1374   -7.6000   -5.2667 C   0  0  0  0  0  0  0  0  0  0  0  0
   18.3033   -7.1503   -4.5232 C   0  0  0  0  0  0  0  0  0  0  0  0
   18.3455   -5.9532   -3.8673 C   0  0  0  0  0  0  0  0  0  0  0  0
   19.4831   -5.6004   -3.1876 C   0  0  0  0  0  0  0  0  0  0  0  0
   20.5770   -6.4170   -3.1498 C   0  0  0  0  0  0  0  0  0  0  0  0
   20.5577   -7.6381   -3.8086 C   0  0  0  0  0  0  0  0  0  0  0  0
   19.4036   -7.9776   -4.4884 C   0  0  0  0  0  0  0  0  0  0  0  0
   15.8549   -2.4928   -6.7624 C   0  0  0  0  0  0  0  0  0  0  0  0
   15.9988   -1.3994   -5.9999 C   0  0  0  0  0  0  0  0  0  0  0  0
   15.0291   -0.3178   -5.6449 C   0  0  0  0  0  0  0  0  0  0  0  0
   14.3134   -0.6879   -4.3663 C   0  0  0  0  0  0  0  0  0  0  0  0
   15.2778   -1.4452   -3.5207 C   0  0  0  0  0  0  0  0  0  0  0  0
   15.4579   -1.1789   -2.2306 C   0  0  0  0  0  0  0  0  0  0  0  0
  1  2  1  0
  2  3  1  0
  3  4  2  3
  4  5  1  0
  5  6  2  0
  6  7  1  0
  7  8  2  3
  8  9  1  0
  9 10  2  0
  9 11  1  0
 11 12  1  0
 12 13  2  3
 13 14  1  0
 14 15  2  0
 15 16  1  0
 16 17  2  0
 17 18  1  0
 18 19  2  0
  6 20  1  0
 20 21  2  0
 21 22  1  0
 22 23  1  0
 23 24  1  0
 24 25  2  0
 21  5  1  0
 19 14  1  0
M  END
>  <docking_score>  (2) 
-3.6459999999999999

$$$$

     RDKit          3D

 25 26  0  0  0  0  0  0  0  0999 V2000
   16.8962   -9.8894   -5.0501 C   0  0  0  0  0  0  0  0  0  0  0  0
   18.0250   -9.0471   -5.0942 O   0  0  0  0  0  0  0  0  0  0  0  0
   18.1512   -8.0191   -4.2170 C   0  0  0  0  0  0  0  0  0  0  0  0
   18.9423   -7.0247   -4.2226 C   0  0  0  0  0  0  0  0  0  0  0  0
   19.9751   -6.6154   -5.1295 C   0  0  0  0  0  0  0  0  0  0  0  0
   20.8995   -5.6264   -5.0797 C   0  0  0  0  0  0  0  0  0  0  0  0
   21.1994   -4.5911   -4.0758 C   0  0  0  0  0  0  0  0  0  0  0  0
   20.5837   -4.6658   -2.9062 C   0  0  0  0  0  0  0  0  0  0  0  0
   20.8258   -3.6851   -1.8678 C   0  0  0  0  0  0  0  0  0  0  0  0
   20.9055   -4.0421   -0.6754 O   0  0  0  0  0  0  0  0  0  0  0  0
   20.9666   -2.3607   -2.2076 O   0  0  0  0  0  0  0  0  0  0  0  0
   20.5833   -1.3124   -1.3789 C   0  0  0  0  0  0  0  0  0  0  0  0
   19.3786   -0.8153   -1.3742 C   0  0  0  0  0  0  0  0  0  0  0  0
   18.3190   -1.3118   -2.2376 C   0  0  0  0  0  0  0  0  0  0  0  0
   17.0646   -1.5968   -1.7795 C   0  0  0  0  0  0  0  0  0  0  0  0
   16.1193   -2.0617   -2.6574 C   0  0  0  0  0  0  0  0  0  0  0  0
   16.4009   -2.2474   -3.9807 C   0  0  0  0  0  0  0  0  0  0  0  0
   17.6685   -1.9647   -4.4695 C   0  0  0  0  0  0  0  0  0  0  0  0
   18.6085   -1.4972   -3.5710 C   0  0  0  0  0  0  0  0  0  0  0  0
   21.3762   -6.0666   -6.3670 C   0  0  0  0  0  0  0  0  0  0  0  0
   20.4642   -7.0476   -6.4255 C   0  0  0  0  0  0  0  0  0  0  0  0
   20.2049   -8.0833   -7.4726 C   0  0  0  0  0  0  0  0  0  0  0  0
   19.7325   -7.4068   -8.7387 C   0  0  0  0  0  0  0  0  0  0  0  0
   18.2433   -7.4367   -8.7292 C   0  0  0  0  0  0  0  0  0  0  0  0
   17.5249   -6.8896   -7.7534 C   0  0  0  0  0  0  0  0  0  0  0  0
  1  2  1  0
  2  3  1  0
  3  4  2  3
  4  5  1  0
  5  6  2  0
  6  7  1  0
  7  8  2  3
  8  9  1  0
  9 10  2  0
  9 11  1  0
 11 12  1  0
 12 13  2  3
 13 14  1  0
 14 15  2  0
 15 16  1  0
 16 17  2  0
 17 18  1  0
 18 19  2  0
  6 20  1  0
 20 21  2  0
 21 22  1  0
 22 23  1  0
 23 24  1  0
 24 25  2  0
 21  5  1  0
 19 14  1  0
M  END
>  <docking_score>  (3) 
-2.4460000000000002

$$$$
