
     RDKit          3D

  7  6  0  0  0  0  0  0  0  0999 V2000
    6.1024    2.1601   -6.0577 C   0  0  0  0  0  0  0  0  0  0  0  0
    6.8066    1.0211   -6.4905 O   0  0  0  0  0  0  0  0  0  0  0  0
    6.3975    0.3027   -7.5996 C   0  0  0  0  0  0  0  0  0  0  0  0
    6.0137   -0.9650   -7.4393 C   0  0  0  0  0  0  0  0  0  0  0  0
    6.0058   -1.6292   -6.1447 C   0  0  0  0  0  0  0  0  0  0  0  0
    5.6295   -2.8927   -6.1395 C   0  0  0  0  0  0  0  0  0  0  0  0
    5.2346   -3.6176   -7.3548 C   0  0  0  0  0  0  0  0  0  0  0  0
  1  2  1  0
  2  3  1  0
  3  4  2  3
  4  5  1  0
  5  6  2  3
  6  7  1  0
M  END
>  <docking_score>  (1) 
-4.0789999999999997

$$$$

     RDKit          3D

  7  6  0  0  0  0  0  0  0  0999 V2000
    4.7292   -4.1369   -6.6496 C   0  0  0  0  0  0  0  0  0  0  0  0
    4.9089   -2.7445   -6.5525 O   0  0  0  0  0  0  0  0  0  0  0  0
    5.8664   -2.2009   -5.7151 C   0  0  0  0  0  0  0  0  0  0  0  0
    6.4378   -1.0445   -6.0563 C   0  0  0  0  0  0  0  0  0  0  0  0
    6.0979   -0.3260   -7.2750 C   0  0  0  0  0  0  0  0  0  0  0  0
    6.0977    0.9900   -7.1956 C   0  0  0  0  0  0  0  0  0  0  0  0
    6.4180    1.7197   -5.9613 C   0  0  0  0  0  0  0  0  0  0  0  0
  1  2  1  0
  2  3  1  0
  3  4  2  3
  4  5  1  0
  5  6  2  3
  6  7  1  0
M  END
>  <docking_score>  (2) 
-3.8300000000000001

$$$$

     RDKit          3D

  7  6  0  0  0  0  0  0  0  0999 V2000
    6.1907    1.7249   -6.2394 C   0  0  0  0  0  0  0  0  0  0  0  0
    7.1425    0.6883   -6.2393 O   0  0  0  0  0  0  0  0  0  0  0  0
    7.0213   -0.3975   -5.3908 C   0  0  0  0  0  0  0  0  0  0  0  0
    6.4227   -1.5018   -5.8405 C   0  0  0  0  0  0  0  0  0  0  0  0
    5.8889   -1.6163   -7.1892 C   0  0  0  0  0  0  0  0  0  0  0  0
    5.2405   -2.7299   -7.4674 C   0  0  0  0  0  0  0  0  0  0  0  0
    5.0503   -3.8129   -6.4930 C   0  0  0  0  0  0  0  0  0  0  0  0
  1  2  1  0
  2  3  1  0
  3  4  2  3
  4  5  1  0
  5  6  2  3
  6  7  1  0
M  END
>  <docking_score>  (3) 
-3.5910000000000002

$$$$
