
     RDKit          3D

 21 20  0  0  0  0  0  0  0  0999 V2000
   15.4347   -4.9349   -0.1481 O   0  0  0  0  0  0  0  0  0  0  0  0
   16.1210   -3.8615   -0.5384 O   0  0  0  0  0  0  0  0  0  0  0  0
   16.8005   -4.1660   -1.7199 C   0  0  0  0  0  3  0  0  0  0  0  0
   18.1189   -3.7007   -1.6838 O   0  0  0  0  0  0  0  0  0  0  0  0
   18.8889   -4.5679   -2.4158 C   0  0  2  0  0  0  0  0  0  0  0  0
   20.3495   -4.3096   -2.2303 C   0  0  0  0  0  0  0  0  0  0  0  0
   18.4503   -4.8274   -3.8060 C   0  0  0  0  0  3  0  0  0  0  0  0
   19.1099   -3.9694   -4.8475 C   0  0  1  0  0  0  0  0  0  0  0  0
   19.2441   -4.6561   -6.1199 N   0  0  0  0  0  0  0  0  0  0  0  0
   19.2831   -6.0705   -5.9504 C   0  0  0  0  0  3  0  0  0  0  0  0
   18.4750   -6.8631   -6.9240 C   0  0  0  0  0  0  0  0  0  0  0  0
   17.0080   -6.6403   -6.6869 C   0  0  0  0  0  3  0  0  0  0  0  0
   16.5432   -7.4798   -5.5166 C   0  0  0  0  0  0  0  0  0  0  0  0
   15.1453   -6.6153   -4.7398 S   0  0  0  0  0  0  0  0  0  0  0  0
   18.2792   -2.7374   -5.0489 C   0  0  0  0  0  0  0  0  0  0  0  0
   17.4385   -2.7339   -6.2756 C   0  0  0  0  0  3  0  0  0  0  0  0
   16.1329   -3.1574   -6.0340 O   0  0  0  0  0  0  0  0  0  0  0  0
   15.2450   -2.2419   -6.6051 C   0  0  0  0  0  3  0  0  0  0  0  0
   15.0724   -0.9881   -5.8134 C   0  0  0  0  0  0  0  0  0  0  0  0
   13.9315   -1.0616   -4.8430 C   0  0  0  0  0  3  0  0  0  0  0  0
   14.4118   -0.8847   -3.5620 O   0  0  0  0  0  0  0  0  0  0  0  0
  1  2  1  0
  2  3  1  0
  3  4  1  0
  4  5  1  0
  5  6  1  6
  5  7  1  0
  8  7  1  1
  8  9  1  0
  9 10  1  0
 10 11  1  0
 11 12  1  0
 12 13  1  0
 13 14  1  0
  8 15  1  0
 15 16  1  0
 16 17  1  0
 17 18  1  0
 18 19  1  0
 19 20  1  0
 20 21  1  0
M  RAD  7   3   2   7   2  10   2  12   2  16   2  18   2  20   2
M  END
>  <docking_score>  (1) 
-2.496

$$$$

     RDKit          3D

 21 20  0  0  0  0  0  0  0  0999 V2000
   14.2606   -8.1260   -4.1653 O   0  0  0  0  0  0  0  0  0  0  0  0
   14.9657   -7.0969   -4.6336 O   0  0  0  0  0  0  0  0  0  0  0  0
   16.1916   -7.5688   -5.1076 C   0  0  0  0  0  3  0  0  0  0  0  0
   16.6826   -6.7637   -6.1404 O   0  0  0  0  0  0  0  0  0  0  0  0
   17.9421   -6.3519   -5.7872 C   0  0  2  0  0  0  0  0  0  0  0  0
   18.3136   -6.8090   -4.4134 C   0  0  0  0  0  0  0  0  0  0  0  0
   18.2970   -4.9536   -6.1208 C   0  0  0  0  0  3  0  0  0  0  0  0
   17.1534   -3.9813   -6.0674 C   0  0  1  0  0  0  0  0  0  0  0  0
   16.0371   -4.4008   -6.8959 N   0  0  0  0  0  0  0  0  0  0  0  0
   15.5616   -3.3348   -7.7134 C   0  0  0  0  0  3  0  0  0  0  0  0
   15.8988   -1.9579   -7.2448 C   0  0  0  0  0  0  0  0  0  0  0  0
   14.6848   -1.2957   -6.6569 C   0  0  0  0  0  3  0  0  0  0  0  0
   15.1067   -0.2735   -5.6236 C   0  0  0  0  0  0  0  0  0  0  0  0
   13.8678   -0.2921   -4.2932 S   0  0  0  0  0  0  0  0  0  0  0  0
   16.6857   -3.8701   -4.6471 C   0  0  0  0  0  0  0  0  0  0  0  0
   17.3156   -2.7796   -3.8564 C   0  0  0  0  0  3  0  0  0  0  0  0
   16.8089   -2.6928   -2.5610 O   0  0  0  0  0  0  0  0  0  0  0  0
   17.4491   -1.6467   -1.8915 C   0  0  0  0  0  3  0  0  0  0  0  0
   18.7970   -1.3103   -2.4380 C   0  0  0  0  0  0  0  0  0  0  0  0
   19.9095   -1.6175   -1.4806 C   0  0  0  0  0  3  0  0  0  0  0  0
   19.8009   -2.9276   -1.0623 O   0  0  0  0  0  0  0  0  0  0  0  0
  1  2  1  0
  2  3  1  0
  3  4  1  0
  4  5  1  0
  5  6  1  1
  5  7  1  0
  8  7  1  1
  8  9  1  0
  9 10  1  0
 10 11  1  0
 11 12  1  0
 12 13  1  0
 13 14  1  0
  8 15  1  0
 15 16  1  0
 16 17  1  0
 17 18  1  0
 18 19  1  0
 19 20  1  0
 20 21  1  0
M  RAD  7   3   2   7   2  10   2  12   2  16   2  18   2  20   2
M  END
>  <docking_score>  (2) 
-2.3610000000000002

$$$$

     RDKit          3D

 21 20  0  0  0  0  0  0  0  0999 V2000
   12.9997   -5.2641   -5.8028 O   0  0  0  0  0  0  0  0  0  0  0  0
   13.5873   -5.0725   -6.9834 O   0  0  0  0  0  0  0  0  0  0  0  0
   14.5605   -6.0570   -7.1675 C   0  0  0  0  0  3  0  0  0  0  0  0
   15.5153   -5.6598   -8.1091 O   0  0  0  0  0  0  0  0  0  0  0  0
   16.7533   -5.8102   -7.5387 C   0  0  2  0  0  0  0  0  0  0  0  0
   17.5661   -6.8527   -8.2366 C   0  0  0  0  0  0  0  0  0  0  0  0
   16.7991   -5.8389   -6.0590 C   0  0  0  0  0  3  0  0  0  0  0  0
   16.6029   -4.5063   -5.3945 C   0  0  1  0  0  0  0  0  0  0  0  0
   17.4337   -4.3543   -4.2133 N   0  0  0  0  0  0  0  0  0  0  0  0
   16.6969   -3.8118   -3.1207 C   0  0  0  0  0  3  0  0  0  0  0  0
   17.4947   -3.0492   -2.1153 C   0  0  0  0  0  0  0  0  0  0  0  0
   18.8421   -3.6871   -1.9267 C   0  0  0  0  0  3  0  0  0  0  0  0
   19.9261   -2.7547   -2.4228 C   0  0  0  0  0  0  0  0  0  0  0  0
   19.5114   -1.0778   -1.8563 S   0  0  0  0  0  0  0  0  0  0  0  0
   16.9542   -3.4267   -6.3741 C   0  0  0  0  0  0  0  0  0  0  0  0
   17.8881   -2.3880   -5.8640 C   0  0  0  0  0  3  0  0  0  0  0  0
   17.4630   -1.0930   -6.1550 O   0  0  0  0  0  0  0  0  0  0  0  0
   16.3954   -0.7655   -5.3151 C   0  0  0  0  0  3  0  0  0  0  0  0
   15.0747   -0.7013   -6.0082 C   0  0  0  0  0  0  0  0  0  0  0  0
   13.9210   -0.9963   -5.0968 C   0  0  0  0  0  3  0  0  0  0  0  0
   13.7354    0.0680   -4.2390 O   0  0  0  0  0  0  0  0  0  0  0  0
  1  2  1  0
  2  3  1  0
  3  4  1  0
  4  5  1  0
  5  6  1  6
  5  7  1  0
  8  7  1  6
  8  9  1  0
  9 10  1  0
 10 11  1  0
 11 12  1  0
 12 13  1  0
 13 14  1  0
  8 15  1  0
 15 16  1  0
 16 17  1  0
 17 18  1  0
 18 19  1  0
 19 20  1  0
 20 21  1  0
M  RAD  7   3   2   7   2  10   2  12   2  16   2  18   2  20   2
M  END
>  <docking_score>  (3) 
-2.1480000000000001

$$$$
