
     RDKit          3D

 18 18  0  0  0  0  0  0  0  0999 V2000
   14.5499   -2.7384   -4.8252 O   0  0  0  0  0  0  0  0  0  0  0  0
   15.0774   -3.1350   -5.8997 C   0  0  0  0  0  0  0  0  0  0  0  0
   15.1737   -2.2556   -6.9670 O   0  0  0  0  0  0  0  0  0  0  0  0
   15.6069   -4.5358   -6.0661 C   0  0  0  0  0  0  0  0  0  0  0  0
   14.9810   -5.3176   -4.9787 C   0  0  0  0  0  0  0  0  0  0  0  0
   15.6984   -6.1521   -4.2774 C   0  0  0  0  0  0  0  0  0  0  0  0
   17.1100   -6.3082   -4.5701 C   0  0  0  0  0  0  0  0  0  0  0  0
   17.7661   -7.3919   -5.9736 Br  0  0  0  0  0  0  0  0  0  0  0  0
   17.9810   -5.6642   -3.8223 C   0  0  0  0  0  0  0  0  0  0  0  0
   17.4705   -4.8630   -2.7862 O   0  0  0  0  0  0  0  0  0  0  0  0
   17.6036   -3.4729   -2.9913 C   0  0  0  0  0  0  0  0  0  0  0  0
   18.4898   -2.8602   -2.2001 C   0  0  0  0  0  0  0  0  0  0  0  0
   18.6387   -1.4094   -2.4061 C   0  0  0  0  0  0  0  0  0  0  0  0
   19.8362   -0.8480   -2.2662 C   0  0  0  0  0  0  0  0  0  0  0  0
   20.9622   -1.7755   -1.8988 C   0  0  0  0  0  0  0  0  0  0  0  0
   20.5029   -2.7212   -0.8049 C   0  0  0  0  0  0  0  0  0  0  0  0
   19.2948   -3.5244   -1.1726 C   0  0  0  0  0  0  0  0  0  0  0  0
   19.8555   -5.8166   -4.1359 Br  0  0  0  0  0  0  0  0  0  0  0  0
  1  2  2  0
  2  3  1  0
  2  4  1  0
  4  5  1  0
  5  6  2  3
  6  7  1  0
  7  8  1  0
  7  9  2  3
  9 10  1  0
 10 11  1  0
 11 12  2  3
 12 13  1  0
 13 14  2  0
 14 15  1  0
 15 16  1  0
 16 17  1  0
  9 18  1  0
 17 12  1  0
M  END
>  <docking_score>  (1) 
-4.2469999999999999

$$$$

     RDKit          3D

 18 18  0  0  0  0  0  0  0  0999 V2000
   14.6871   -1.5177   -3.9896 O   0  0  0  0  0  0  0  0  0  0  0  0
   14.9864   -1.4747   -5.2138 C   0  0  0  0  0  0  0  0  0  0  0  0
   15.3630   -0.2631   -5.7725 O   0  0  0  0  0  0  0  0  0  0  0  0
   14.9475   -2.6967   -6.0944 C   0  0  0  0  0  0  0  0  0  0  0  0
   14.2094   -3.7123   -5.3140 C   0  0  0  0  0  0  0  0  0  0  0  0
   14.3438   -4.9790   -5.5977 C   0  0  0  0  0  0  0  0  0  0  0  0
   15.2192   -5.3840   -6.6804 C   0  0  0  0  0  0  0  0  0  0  0  0
   14.7845   -5.1599   -8.5067 Br  0  0  0  0  0  0  0  0  0  0  0  0
   16.3756   -5.9362   -6.3795 C   0  0  0  0  0  0  0  0  0  0  0  0
   16.6785   -6.0910   -5.0156 O   0  0  0  0  0  0  0  0  0  0  0  0
   18.0454   -5.9520   -4.6924 C   0  0  0  0  0  0  0  0  0  0  0  0
   18.3541   -4.8755   -3.9626 C   0  0  0  0  0  0  0  0  0  0  0  0
   19.7776   -4.7208   -3.6176 C   0  0  0  0  0  0  0  0  0  0  0  0
   20.1130   -4.2094   -2.4366 C   0  0  0  0  0  0  0  0  0  0  0  0
   18.9719   -3.8242   -1.5350 C   0  0  0  0  0  0  0  0  0  0  0  0
   17.9168   -3.0886   -2.3397 C   0  0  0  0  0  0  0  0  0  0  0  0
   17.3918   -3.8723   -3.5016 C   0  0  0  0  0  0  0  0  0  0  0  0
   17.5845   -6.5010   -7.7414 Br  0  0  0  0  0  0  0  0  0  0  0  0
  1  2  2  0
  2  3  1  0
  2  4  1  0
  4  5  1  0
  5  6  2  3
  6  7  1  0
  7  8  1  0
  7  9  2  3
  9 10  1  0
 10 11  1  0
 11 12  2  3
 12 13  1  0
 13 14  2  0
 14 15  1  0
 15 16  1  0
 16 17  1  0
  9 18  1  0
 17 12  1  0
M  END
>  <docking_score>  (2) 
-4.1420000000000003

$$$$

     RDKit          3D

 18 18  0  0  0  0  0  0  0  0999 V2000
   15.6746   -3.0338   -3.6214 O   0  0  0  0  0  0  0  0  0  0  0  0
   16.3735   -3.4726   -2.6680 C   0  0  0  0  0  0  0  0  0  0  0  0
   16.1270   -4.7481   -2.1839 O   0  0  0  0  0  0  0  0  0  0  0  0
   17.4696   -2.6568   -2.0327 C   0  0  0  0  0  0  0  0  0  0  0  0
   18.5105   -3.6359   -1.6543 C   0  0  0  0  0  0  0  0  0  0  0  0
   19.7643   -3.3933   -1.9229 C   0  0  0  0  0  0  0  0  0  0  0  0
   20.1301   -2.1606   -2.5932 C   0  0  0  0  0  0  0  0  0  0  0  0
   20.4758   -0.5432   -1.6771 Br  0  0  0  0  0  0  0  0  0  0  0  0
   20.2266   -2.1648   -3.9059 C   0  0  0  0  0  0  0  0  0  0  0  0
   19.9672   -3.3786   -4.5657 O   0  0  0  0  0  0  0  0  0  0  0  0
   18.9066   -3.3328   -5.4959 C   0  0  0  0  0  0  0  0  0  0  0  0
   18.2923   -4.4985   -5.7208 C   0  0  0  0  0  0  0  0  0  0  0  0
   17.1825   -4.4628   -6.6885 C   0  0  0  0  0  0  0  0  0  0  0  0
   16.1214   -5.2411   -6.4964 C   0  0  0  0  0  0  0  0  0  0  0  0
   16.1543   -6.1129   -5.2708 C   0  0  0  0  0  0  0  0  0  0  0  0
   17.5229   -6.7550   -5.1428 C   0  0  0  0  0  0  0  0  0  0  0  0
   18.6468   -5.7686   -5.0835 C   0  0  0  0  0  0  0  0  0  0  0  0
   20.6984   -0.5868   -4.8666 Br  0  0  0  0  0  0  0  0  0  0  0  0
  1  2  2  0
  2  3  1  0
  2  4  1  0
  4  5  1  0
  5  6  2  3
  6  7  1  0
  7  8  1  0
  7  9  2  3
  9 10  1  0
 10 11  1  0
 11 12  2  3
 12 13  1  0
 13 14  2  0
 14 15  1  0
 15 16  1  0
 16 17  1  0
  9 18  1  0
 17 12  1  0
M  END
>  <docking_score>  (3) 
-3.98

$$$$
