
     RDKit          3D

 31 33  0  0  0  0  0  0  0  0999 V2000
    3.9956   10.5504    1.9941 O   0  0  0  0  0  0  0  0  0  0  0  0
    5.0211    9.9357    2.3598 C   0  0  0  0  0  0  0  0  0  0  0  0
    6.2780   10.4845    2.0938 N   0  0  0  0  0  0  0  0  0  0  0  0
    6.5489   11.7383    1.4299 C   0  0  0  0  0  0  0  0  0  0  0  0
    6.8955   12.6774    2.5262 C   0  0  0  0  0  0  0  0  0  0  0  0
    6.1505   13.6805    3.0032 C   0  0  0  0  0  0  0  0  0  0  0  0
    6.4696   14.5627    4.0067 C   0  0  0  0  0  0  0  0  0  0  0  0
    7.7781   14.3888    4.6338 C   0  0  0  0  0  0  0  0  0  0  0  0
    8.1201   15.2512    5.6190 F   0  0  0  0  0  0  0  0  0  0  0  0
    8.4818   13.3942    4.1403 C   0  0  0  0  0  0  0  0  0  0  0  0
    8.1803   12.5139    3.1482 C   0  0  0  0  0  0  0  0  0  0  0  0
    4.8959    8.6358    3.0670 C   0  0  0  0  0  0  0  0  0  0  0  0
    3.9203    8.5005    3.9102 C   0  0  0  0  0  0  0  0  0  0  0  0
    3.5182    7.4257    4.7326 C   0  0  0  0  0  0  0  0  0  0  0  0
    3.0988    6.2370    4.1444 C   0  0  0  0  0  0  0  0  0  0  0  0
    2.7072    5.1709    4.9181 C   0  0  0  0  0  0  0  0  0  0  0  0
    2.7079    5.2147    6.3038 C   0  0  0  0  0  0  0  0  0  0  0  0
    2.3101    4.0871    7.1460 C   0  0  0  0  0  0  0  0  0  0  0  0
    3.1231    6.3930    6.8788 C   0  0  0  0  0  0  0  0  0  0  0  0
    3.5180    7.4752    6.0995 C   0  0  0  0  0  0  0  0  0  0  0  0
    3.9388    8.7057    6.7517 C   0  0  0  0  0  0  0  0  0  0  0  0
    4.2800    9.7715    7.3124 C   0  0  0  0  0  0  0  0  0  0  0  0
    4.6585   10.9117    7.9369 O   0  0  0  0  0  0  0  0  0  0  0  0
    4.2579   11.2188    9.2265 C   0  0  0  0  0  0  0  0  0  0  0  0
    4.4698   10.5328   10.3080 C   0  0  0  0  0  0  0  0  0  0  0  0
    5.1294    9.3732   10.3739 F   0  0  0  0  0  0  0  0  0  0  0  0
    3.8839   11.2184   11.4633 C   0  0  0  0  0  0  0  0  0  0  0  0
    3.3151   12.3300   11.0563 C   0  0  0  0  0  0  0  0  0  0  0  0
    2.6802   13.2070   11.8584 F   0  0  0  0  0  0  0  0  0  0  0  0
    3.4950   12.4287    9.5923 C   0  0  1  0  0  0  0  0  0  0  0  0
    4.2521   13.5883    9.3584 O   0  0  0  0  0  0  0  0  0  0  0  0
  1  2  2  0
  2  3  1  0
  3  4  1  0
  4  5  1  0
  5  6  2  0
  6  7  1  0
  7  8  2  0
  8  9  1  0
  8 10  1  0
 10 11  2  0
  2 12  1  0
 12 13  2  3
 13 14  1  0
 14 15  2  0
 15 16  1  0
 16 17  2  0
 17 18  1  0
 17 19  1  0
 19 20  2  0
 20 21  1  0
 21 22  3  0
 22 23  1  0
 23 24  1  0
 24 25  2  0
 25 26  1  0
 25 27  1  0
 27 28  2  0
 28 29  1  0
 28 30  1  0
 30 31  1  1
 11  5  1  0
 20 14  1  0
 30 24  1  0
M  END
>  <docking_score>  (1) 
-5.6180000000000003

$$$$

     RDKit          3D

 31 33  0  0  0  0  0  0  0  0999 V2000
    3.0062   10.4424    9.5674 O   0  0  0  0  0  0  0  0  0  0  0  0
    3.8482    9.5307    9.7190 C   0  0  0  0  0  0  0  0  0  0  0  0
    4.5103    9.4086   10.9431 N   0  0  0  0  0  0  0  0  0  0  0  0
    4.3224   10.2362   12.1118 C   0  0  0  0  0  0  0  0  0  0  0  0
    3.8252    9.3054   13.1560 C   0  0  0  0  0  0  0  0  0  0  0  0
    3.4831    8.0213   13.0041 C   0  0  0  0  0  0  0  0  0  0  0  0
    3.0085    7.1577   13.9613 C   0  0  0  0  0  0  0  0  0  0  0  0
    2.8586    7.7003   15.3099 C   0  0  0  0  0  0  0  0  0  0  0  0
    2.3839    6.8720   16.2690 F   0  0  0  0  0  0  0  0  0  0  0  0
    3.2041    8.9637   15.4216 C   0  0  0  0  0  0  0  0  0  0  0  0
    3.6744    9.8305   14.4848 C   0  0  0  0  0  0  0  0  0  0  0  0
    4.1372    8.5930    8.6042 C   0  0  0  0  0  0  0  0  0  0  0  0
    3.5217    8.7866    7.4796 C   0  0  0  0  0  0  0  0  0  0  0  0
    3.5612    8.1021    6.2454 C   0  0  0  0  0  0  0  0  0  0  0  0
    3.1736    6.7672    6.1934 C   0  0  0  0  0  0  0  0  0  0  0  0
    3.1951    6.0757    5.0060 C   0  0  0  0  0  0  0  0  0  0  0  0
    3.5953    6.6558    3.8121 C   0  0  0  0  0  0  0  0  0  0  0  0
    3.6111    5.9429    2.5352 C   0  0  0  0  0  0  0  0  0  0  0  0
    3.9778    7.9755    3.8707 C   0  0  0  0  0  0  0  0  0  0  0  0
    3.9597    8.6785    5.0706 C   0  0  0  0  0  0  0  0  0  0  0  0
    4.3839   10.0700    5.0866 C   0  0  0  0  0  0  0  0  0  0  0  0
    4.7696   11.2607    5.1043 C   0  0  0  0  0  0  0  0  0  0  0  0
    5.1776   12.5517    5.1015 O   0  0  0  0  0  0  0  0  0  0  0  0
    6.0124   13.0633    4.1221 C   0  0  0  0  0  0  0  0  0  0  0  0
    5.6957   13.4135    2.9128 C   0  0  0  0  0  0  0  0  0  0  0  0
    4.4735   13.3398    2.3792 F   0  0  0  0  0  0  0  0  0  0  0  0
    6.8783   13.9142    2.2065 C   0  0  0  0  0  0  0  0  0  0  0  0
    7.9128   13.8582    3.0136 C   0  0  0  0  0  0  0  0  0  0  0  0
    9.1627   14.2426    2.6890 F   0  0  0  0  0  0  0  0  0  0  0  0
    7.4573   13.3041    4.3063 C   0  0  1  0  0  0  0  0  0  0  0  0
    7.6804   14.3003    5.2708 O   0  0  0  0  0  0  0  0  0  0  0  0
  1  2  2  0
  2  3  1  0
  3  4  1  0
  4  5  1  0
  5  6  2  0
  6  7  1  0
  7  8  2  0
  8  9  1  0
  8 10  1  0
 10 11  2  0
  2 12  1  0
 12 13  2  3
 13 14  1  0
 14 15  2  0
 15 16  1  0
 16 17  2  0
 17 18  1  0
 17 19  1  0
 19 20  2  0
 20 21  1  0
 21 22  3  0
 22 23  1  0
 23 24  1  0
 24 25  2  0
 25 26  1  0
 25 27  1  0
 27 28  2  0
 28 29  1  0
 28 30  1  0
 30 31  1  1
 11  5  1  0
 20 14  1  0
 30 24  1  0
M  END
>  <docking_score>  (2) 
-4.931

$$$$

     RDKit          3D

 31 33  0  0  0  0  0  0  0  0999 V2000
    6.5165   15.4816    7.5848 O   0  0  0  0  0  0  0  0  0  0  0  0
    5.9985   14.3436    7.5925 C   0  0  0  0  0  0  0  0  0  0  0  0
    6.2039   13.4920    6.5042 N   0  0  0  0  0  0  0  0  0  0  0  0
    6.9880   13.7736    5.3243 C   0  0  0  0  0  0  0  0  0  0  0  0
    6.5017   12.8053    4.3095 C   0  0  0  0  0  0  0  0  0  0  0  0
    5.5414   12.9964    3.3983 C   0  0  0  0  0  0  0  0  0  0  0  0
    5.0756   12.1013    2.4660 C   0  0  0  0  0  0  0  0  0  0  0  0
    5.7012   10.7806    2.4630 C   0  0  0  0  0  0  0  0  0  0  0  0
    5.2534    9.8776    1.5600 F   0  0  0  0  0  0  0  0  0  0  0  0
    6.6397   10.6292    3.3708 C   0  0  0  0  0  0  0  0  0  0  0  0
    7.1109   11.5042    4.2996 C   0  0  0  0  0  0  0  0  0  0  0  0
    5.1736   13.9104    8.7489 C   0  0  0  0  0  0  0  0  0  0  0  0
    5.6451   14.1222    9.9379 C   0  0  0  0  0  0  0  0  0  0  0  0
    5.1354   13.8443   11.2249 C   0  0  0  0  0  0  0  0  0  0  0  0
    3.7598   13.8570   11.4309 C   0  0  0  0  0  0  0  0  0  0  0  0
    3.2331   13.5845   12.6705 C   0  0  0  0  0  0  0  0  0  0  0  0
    4.0252   13.2853   13.7683 C   0  0  0  0  0  0  0  0  0  0  0  0
    3.4849   12.9774   15.0920 C   0  0  0  0  0  0  0  0  0  0  0  0
    5.3843   13.2751   13.5579 C   0  0  0  0  0  0  0  0  0  0  0  0
    5.9217   13.5525   12.3055 C   0  0  0  0  0  0  0  0  0  0  0  0
    7.3662   13.5413   12.1327 C   0  0  0  0  0  0  0  0  0  0  0  0
    8.6096   13.5530   11.9892 C   0  0  0  0  0  0  0  0  0  0  0  0
    9.9564   13.5480   11.8500 O   0  0  0  0  0  0  0  0  0  0  0  0
   10.8133   13.7333   12.9220 C   0  0  0  0  0  0  0  0  0  0  0  0
   11.8822   13.0554   13.2101 C   0  0  0  0  0  0  0  0  0  0  0  0
   12.3613   12.0266   12.5057 F   0  0  0  0  0  0  0  0  0  0  0  0
   12.5035   13.5859   14.4270 C   0  0  0  0  0  0  0  0  0  0  0  0
   11.7876   14.5957   14.8659 C   0  0  0  0  0  0  0  0  0  0  0  0
   12.0725   15.3189   15.9666 F   0  0  0  0  0  0  0  0  0  0  0  0
   10.6408   14.7778   13.9511 C   0  0  1  0  0  0  0  0  0  0  0  0
   10.7733   16.0592   13.3917 O   0  0  0  0  0  0  0  0  0  0  0  0
  1  2  2  0
  2  3  1  0
  3  4  1  0
  4  5  1  0
  5  6  2  0
  6  7  1  0
  7  8  2  0
  8  9  1  0
  8 10  1  0
 10 11  2  0
  2 12  1  0
 12 13  2  3
 13 14  1  0
 14 15  2  0
 15 16  1  0
 16 17  2  0
 17 18  1  0
 17 19  1  0
 19 20  2  0
 20 21  1  0
 21 22  3  0
 22 23  1  0
 23 24  1  0
 24 25  2  0
 25 26  1  0
 25 27  1  0
 27 28  2  0
 28 29  1  0
 28 30  1  0
 30 31  1  6
 11  5  1  0
 20 14  1  0
 30 24  1  0
M  END
>  <docking_score>  (3) 
-4.7190000000000003

$$$$
