
     RDKit          3D

  9  9  0  0  0  0  0  0  0  0999 V2000
    6.4760    1.1476   -6.3302 C   0  0  0  0  0  0  0  0  0  0  0  0
    7.1722    0.4072   -5.3862 O   0  0  0  0  0  0  0  0  0  0  0  0
    7.0009   -0.9386   -5.6883 C   0  0  0  0  0  3  0  0  0  0  0  0
    5.6602   -1.2650   -5.7637 O   0  0  0  0  0  0  0  0  0  0  0  0
    5.3122   -1.9411   -6.9095 C   0  0  0  0  0  0  0  0  0  0  0  0
    5.5997   -3.4278   -6.7762 C   0  0  0  0  0  0  0  0  0  0  0  0
    6.1269   -1.4662   -7.9469 O   0  0  0  0  0  0  0  0  0  0  0  0
    5.8118   -0.1303   -8.1420 C   0  0  0  0  0  3  0  0  0  0  0  0
    6.7996    0.6807   -7.6139 O   0  0  0  0  0  0  0  0  0  0  0  0
  1  2  1  0
  2  3  1  0
  3  4  1  0
  4  5  1  0
  5  6  1  0
  5  7  1  0
  7  8  1  0
  8  9  1  0
  9  1  1  0
M  RAD  2   3   2   8   2
M  END
>  <docking_score>  (1) 
-4.2779999999999996

$$$$

     RDKit          3D

  9  9  0  0  0  0  0  0  0  0999 V2000
    5.6345   -2.2156   -6.7038 C   0  0  0  0  0  0  0  0  0  0  0  0
    5.6075   -1.7650   -8.0154 O   0  0  0  0  0  0  0  0  0  0  0  0
    6.0491   -0.4471   -8.0231 C   0  0  0  0  0  3  0  0  0  0  0  0
    5.3043    0.3322   -7.1583 O   0  0  0  0  0  0  0  0  0  0  0  0
    6.0604    1.0823   -6.2884 C   0  0  0  0  0  0  0  0  0  0  0  0
    6.5293    2.3717   -6.9428 C   0  0  0  0  0  0  0  0  0  0  0  0
    7.2130    0.3449   -5.9830 O   0  0  0  0  0  0  0  0  0  0  0  0
    6.8078   -0.7940   -5.3042 C   0  0  0  0  0  3  0  0  0  0  0  0
    6.8770   -1.8996   -6.1320 O   0  0  0  0  0  0  0  0  0  0  0  0
  1  2  1  0
  2  3  1  0
  3  4  1  0
  4  5  1  0
  5  6  1  0
  5  7  1  0
  7  8  1  0
  8  9  1  0
  9  1  1  0
M  RAD  2   3   2   8   2
M  END
>  <docking_score>  (2) 
-3.98

$$$$

     RDKit          3D

  9  9  0  0  0  0  0  0  0  0999 V2000
    6.3680   -2.5605   -7.1124 C   0  0  0  0  0  0  0  0  0  0  0  0
    6.1224   -2.3594   -5.7621 O   0  0  0  0  0  0  0  0  0  0  0  0
    5.9204   -0.9987   -5.5631 C   0  0  0  0  0  3  0  0  0  0  0  0
    6.9860   -0.2618   -6.0442 O   0  0  0  0  0  0  0  0  0  0  0  0
    6.6222    0.7725   -6.8742 C   0  0  0  0  0  0  0  0  0  0  0  0
    6.2187    2.0002   -6.0738 C   0  0  0  0  0  0  0  0  0  0  0  0
    5.4849    0.3658   -7.5861 O   0  0  0  0  0  0  0  0  0  0  0  0
    5.8594   -0.6993   -8.3906 C   0  0  0  0  0  3  0  0  0  0  0  0
    5.3911   -1.8894   -7.8647 O   0  0  0  0  0  0  0  0  0  0  0  0
  1  2  1  0
  2  3  1  0
  3  4  1  0
  4  5  1  0
  5  6  1  0
  5  7  1  0
  7  8  1  0
  8  9  1  0
  9  1  1  0
M  RAD  2   3   2   8   2
M  END
>  <docking_score>  (3) 
-3.839

$$$$
