
     RDKit          3D

  7  7  0  0  0  0  0  0  0  0999 V2000
    5.8440   -1.2664   -6.1030 C   0  0  0  0  0  0  0  0  0  0  0  0
    5.9893   -1.1660   -7.6264 C   0  0  0  0  0  2  0  0  0  0  0  0
    6.3207    0.3072   -7.8928 C   0  0  0  0  0  0  0  0  0  0  0  0
    6.1685    0.9997   -6.5366 C   0  0  2  0  0  0  0  0  0  0  0  0
    6.3517    2.3616   -6.6601 O   0  0  0  0  0  0  0  0  0  0  0  0
    7.0667    0.5020   -5.6067 O   0  0  0  0  0  0  0  0  0  0  0  0
    7.0767   -0.8217   -5.5881 O   0  0  0  0  0  0  0  0  0  0  0  0
  1  2  1  0
  2  3  1  0
  3  4  1  0
  4  5  1  6
  4  6  1  0
  6  7  1  0
  7  1  1  0
M  RAD  1   2   3
M  END
>  <docking_score>  (1) 
-3.9510000000000001

$$$$

     RDKit          3D

  7  7  0  0  0  0  0  0  0  0999 V2000
    6.3608    0.9830   -6.7022 C   0  0  0  0  0  0  0  0  0  0  0  0
    7.0954    0.2664   -5.5626 C   0  0  0  0  0  2  0  0  0  0  0  0
    6.7314   -1.2137   -5.7305 C   0  0  0  0  0  0  0  0  0  0  0  0
    5.6730   -1.2391   -6.8356 C   0  0  2  0  0  0  0  0  0  0  0  0
    5.1901   -2.5182   -7.0203 O   0  0  0  0  0  0  0  0  0  0  0  0
    6.1779   -0.7654   -8.0355 O   0  0  0  0  0  0  0  0  0  0  0  0
    6.8327    0.3747   -7.8810 O   0  0  0  0  0  0  0  0  0  0  0  0
  1  2  1  0
  2  3  1  0
  3  4  1  0
  4  5  1  6
  4  6  1  0
  6  7  1  0
  7  1  1  0
M  RAD  1   2   3
M  END
>  <docking_score>  (2) 
-3.73

$$$$

     RDKit          3D

  7  7  0  0  0  0  0  0  0  0999 V2000
    6.7608    0.2418   -8.0124 C   0  0  0  0  0  0  0  0  0  0  0  0
    5.6998   -0.8490   -8.2032 C   0  0  0  0  0  2  0  0  0  0  0  0
    5.5938   -1.5366   -6.8367 C   0  0  0  0  0  0  0  0  0  0  0  0
    6.7194   -0.9275   -5.9975 C   0  0  2  0  0  0  0  0  0  0  0  0
    6.7909   -1.5354   -4.7611 O   0  0  0  0  0  0  0  0  0  0  0  0
    6.5457    0.4360   -5.8251 O   0  0  0  0  0  0  0  0  0  0  0  0
    6.2723    1.0481   -6.9666 O   0  0  0  0  0  0  0  0  0  0  0  0
  1  2  1  0
  2  3  1  0
  3  4  1  0
  4  5  1  1
  4  6  1  0
  6  7  1  0
  7  1  1  0
M  RAD  1   2   3
M  END
>  <docking_score>  (3) 
-3.516

$$$$
