
     RDKit          3D

 26 26  0  0  0  0  0  0  0  0999 V2000
   20.0584   -4.6364   -2.5779 C   0  0  0  0  0  0  0  0  0  0  0  0
   20.1915   -3.3342   -2.0289 O   0  0  0  0  0  0  0  0  0  0  0  0
   19.0402   -2.7918   -2.0746 C   0  0  0  0  0  3  0  0  0  0  0  0
   18.1377   -2.8926   -3.1533 O   0  0  0  0  0  0  0  0  0  0  0  0
   16.8566   -2.4188   -2.5244 C   0  0  2  0  0  0  0  0  0  0  0  0
   16.4831   -3.7346   -1.7375 C   0  0  0  0  0  0  0  0  0  0  0  0
   16.0430   -2.8486   -4.0064 C   0  0  0  0  0  3  0  0  0  0  0  0
   15.7102   -1.4421   -4.5656 C   0  0  1  0  0  0  0  0  0  0  0  0
   16.4814   -1.0450   -5.7602 C   0  0  0  0  0  3  0  0  0  0  0  0
   15.9538   -1.9333   -6.8254 C   0  0  0  0  0  0  0  0  0  0  0  0
   16.4056   -3.2703   -7.1349 C   0  0  2  0  0  0  0  0  0  0  0  0
   18.1783   -3.5900   -7.2189 S   0  0  0  0  0  0  0  0  0  0  0  0
   15.8572   -3.5868   -8.4778 O   0  0  0  0  0  0  0  0  0  0  0  0
   14.6245   -4.1717   -8.2764 C   0  0  0  0  0  3  0  0  0  0  0  0
   14.3633   -4.3006   -6.7860 C   0  0  0  0  0  0  0  0  0  0  0  0
   14.0604   -5.7436   -6.4663 C   0  0  0  0  0  0  0  0  0  0  0  0
   14.1912   -6.0329   -5.1194 O   0  0  0  0  0  0  0  0  0  0  0  0
   15.0230   -7.1519   -4.9977 C   0  0  0  0  0  0  0  0  0  0  0  0
   16.1112   -6.7938   -4.2180 O   0  0  0  0  0  0  0  0  0  0  0  0
   17.2960   -6.7458   -4.9170 C   0  0  0  0  0  3  0  0  0  0  0  0
   17.3005   -5.8256   -5.9827 O   0  0  0  0  0  0  0  0  0  0  0  0
   18.3071   -5.0360   -5.9469 C   0  0  1  0  0  0  0  0  0  0  0  0
   19.6444   -5.4223   -6.0348 O   0  0  0  0  0  0  0  0  0  0  0  0
   20.3430   -4.2496   -6.4856 C   0  0  0  0  0  2  0  0  0  0  0  0
   14.2898   -1.5608   -4.6771 O   0  0  0  0  0  0  0  0  0  0  0  0
   13.7281   -0.3114   -4.3615 C   0  0  0  0  0  2  0  0  0  0  0  0
  1  2  1  0
  2  3  1  0
  3  4  1  0
  4  5  1  0
  5  6  1  1
  5  7  1  0
  8  7  1  6
  8  9  1  0
  9 10  1  0
 11 10  1  6
 11 12  1  0
 11 13  1  0
 13 14  1  0
 14 15  1  0
 15 16  1  0
 16 17  1  0
 17 18  1  0
 18 19  1  0
 19 20  1  0
 20 21  1  0
 21 22  1  0
 22 23  1  6
 23 24  1  0
  8 25  1  0
 25 26  1  0
 22 12  1  0
M  RAD  7   3   2   7   2   9   2  14   2  20   2  24   3  26   3
M  END
>  <docking_score>  (1) 
-4.4740000000000002

$$$$

     RDKit          3D

 26 26  0  0  0  0  0  0  0  0999 V2000
   14.9623   -5.7716   -7.3540 C   0  0  0  0  0  0  0  0  0  0  0  0
   16.3376   -5.8021   -7.0037 O   0  0  0  0  0  0  0  0  0  0  0  0
   16.5598   -6.9355   -6.4673 C   0  0  0  0  0  3  0  0  0  0  0  0
   17.1605   -7.1333   -5.2071 O   0  0  0  0  0  0  0  0  0  0  0  0
   18.5013   -6.4814   -5.4027 C   0  0  2  0  0  0  0  0  0  0  0  0
   19.2717   -7.7137   -6.0175 C   0  0  0  0  0  0  0  0  0  0  0  0
   18.8550   -6.8516   -3.7351 C   0  0  0  0  0  3  0  0  0  0  0  0
   19.0740   -5.4260   -3.1682 C   0  0  1  0  0  0  0  0  0  0  0  0
   17.9928   -4.9265   -2.2957 C   0  0  0  0  0  3  0  0  0  0  0  0
   18.4166   -3.5407   -1.9762 C   0  0  0  0  0  0  0  0  0  0  0  0
   18.2588   -2.3758   -2.8162 C   0  0  2  0  0  0  0  0  0  0  0  0
   19.7311   -1.6026   -3.5136 S   0  0  0  0  0  0  0  0  0  0  0  0
   17.6044   -1.3466   -1.9694 O   0  0  0  0  0  0  0  0  0  0  0  0
   16.2439   -1.5063   -2.1293 C   0  0  0  0  0  3  0  0  0  0  0  0
   15.9792   -2.6151   -3.1328 C   0  0  0  0  0  0  0  0  0  0  0  0
   15.1034   -2.0758   -4.2366 C   0  0  0  0  0  0  0  0  0  0  0  0
   15.1245   -2.8668   -5.3720 O   0  0  0  0  0  0  0  0  0  0  0  0
   15.4108   -2.0424   -6.4662 C   0  0  0  0  0  0  0  0  0  0  0  0
   16.5624   -2.5193   -7.0718 O   0  0  0  0  0  0  0  0  0  0  0  0
   17.6449   -1.6809   -6.9309 C   0  0  0  0  0  3  0  0  0  0  0  0
   18.0169   -1.4383   -5.5947 O   0  0  0  0  0  0  0  0  0  0  0  0
   19.2627   -1.6442   -5.3856 C   0  0  1  0  0  0  0  0  0  0  0  0
   20.3118   -0.9555   -5.9941 O   0  0  0  0  0  0  0  0  0  0  0  0
   20.3077    0.3462   -5.3841 C   0  0  0  0  0  2  0  0  0  0  0  0
   20.3808   -5.5896   -2.6121 O   0  0  0  0  0  0  0  0  0  0  0  0
   21.3127   -5.1470   -3.5671 C   0  0  0  0  0  2  0  0  0  0  0  0
  1  2  1  0
  2  3  1  0
  3  4  1  0
  4  5  1  0
  5  6  1  6
  5  7  1  0
  8  7  1  1
  8  9  1  0
  9 10  1  0
 11 10  1  1
 11 12  1  0
 11 13  1  0
 13 14  1  0
 14 15  1  0
 15 16  1  0
 16 17  1  0
 17 18  1  0
 18 19  1  0
 19 20  1  0
 20 21  1  0
 21 22  1  0
 22 23  1  6
 23 24  1  0
  8 25  1  0
 25 26  1  0
 22 12  1  0
M  RAD  7   3   2   7   2   9   2  14   2  20   2  24   3  26   3
M  END
>  <docking_score>  (2) 
-3.9609999999999999

$$$$

     RDKit          3D

 26 26  0  0  0  0  0  0  0  0999 V2000
   14.6298   -1.3910   -4.2046 C   0  0  0  0  0  0  0  0  0  0  0  0
   14.3522   -2.5310   -5.0037 O   0  0  0  0  0  0  0  0  0  0  0  0
   14.9503   -2.3607   -6.1150 C   0  0  0  0  0  3  0  0  0  0  0  0
   16.1423   -3.0066   -6.5026 O   0  0  0  0  0  0  0  0  0  0  0  0
   16.9339   -1.8655   -7.0790 C   0  0  2  0  0  0  0  0  0  0  0  0
   17.0563   -2.3924   -8.5613 C   0  0  0  0  0  0  0  0  0  0  0  0
   18.3755   -2.6459   -6.4824 C   0  0  0  0  0  3  0  0  0  0  0  0
   18.9712   -1.5126   -5.6094 C   0  0  1  0  0  0  0  0  0  0  0  0
   18.3996   -1.4014   -4.2527 C   0  0  0  0  0  3  0  0  0  0  0  0
   19.2358   -2.3252   -3.4468 C   0  0  0  0  0  0  0  0  0  0  0  0
   18.8487   -3.6245   -2.9474 C   0  0  2  0  0  0  0  0  0  0  0  0
   17.0957   -4.0424   -2.8819 S   0  0  0  0  0  0  0  0  0  0  0  0
   19.3495   -3.6921   -1.5514 O   0  0  0  0  0  0  0  0  0  0  0  0
   20.6226   -4.2194   -1.6105 C   0  0  0  0  0  3  0  0  0  0  0  0
   20.9622   -4.5609   -3.0508 C   0  0  0  0  0  0  0  0  0  0  0  0
   21.3640   -6.0131   -3.1266 C   0  0  0  0  0  0  0  0  0  0  0  0
   21.3152   -6.5159   -4.4149 O   0  0  0  0  0  0  0  0  0  0  0  0
   20.5571   -7.6922   -4.3900 C   0  0  0  0  0  0  0  0  0  0  0  0
   19.4886   -7.5313   -5.2576 O   0  0  0  0  0  0  0  0  0  0  0  0
   18.2707   -7.4529   -4.6208 C   0  0  0  0  0  3  0  0  0  0  0  0
   18.1612   -6.3807   -3.7148 O   0  0  0  0  0  0  0  0  0  0  0  0
   17.1130   -5.6736   -3.9135 C   0  0  1  0  0  0  0  0  0  0  0  0
   15.7980   -6.1281   -3.8169 O   0  0  0  0  0  0  0  0  0  0  0  0
   15.2480   -5.9630   -5.1348 C   0  0  0  0  0  2  0  0  0  0  0  0
   20.3619   -1.8161   -5.7426 O   0  0  0  0  0  0  0  0  0  0  0  0
   20.7752   -1.3871   -7.0160 C   0  0  0  0  0  2  0  0  0  0  0  0
  1  2  1  0
  2  3  1  0
  3  4  1  0
  4  5  1  0
  5  6  1  6
  5  7  1  0
  8  7  1  6
  8  9  1  0
  9 10  1  0
 11 10  1  1
 11 12  1  0
 11 13  1  0
 13 14  1  0
 14 15  1  0
 15 16  1  0
 16 17  1  0
 17 18  1  0
 18 19  1  0
 19 20  1  0
 20 21  1  0
 21 22  1  0
 22 23  1  1
 23 24  1  0
  8 25  1  0
 25 26  1  0
 22 12  1  0
M  RAD  7   3   2   7   2   9   2  14   2  20   2  24   3  26   3
M  END
>  <docking_score>  (3) 
-3.8149999999999999

$$$$
