
     RDKit          3D

 80 84  0  0  0  0  0  0  0  0999 V2000
    7.0657    8.9160    7.5836 C   0  0  0  0  0  0  0  0  0  0  0  0
    5.8033    9.7273    7.3762 C   0  0  1  0  0  0  0  0  0  0  0  0
    4.5985    8.8163    7.2727 C   0  0  0  0  0  0  0  0  0  0  0  0
    3.3538    9.6353    7.1296 C   0  0  2  0  0  0  0  0  0  0  0  0
    3.2274   10.2316    5.8777 O   0  0  0  0  0  0  0  0  0  0  0  0
    3.1618   10.6336    8.2251 C   0  0  2  0  0  0  0  0  0  0  0  0
    3.3586   11.9072    7.6781 O   0  0  0  0  0  0  0  0  0  0  0  0
    4.2759   10.4338    9.2393 C   0  0  1  0  0  0  0  0  0  0  0  0
    4.1898    9.2069    9.8590 O   0  0  0  0  0  0  0  0  0  0  0  0
    5.5825   10.6710    8.5197 C   0  0  1  0  0  0  0  0  0  0  0  0
    6.6908   10.6899    9.4232 N   0  0  0  0  0  0  0  0  0  0  0  0
    6.3300   11.3572   10.6283 C   0  0  0  0  0  3  0  0  0  0  0  0
    7.4441   11.5126   11.6070 C   0  0  1  0  0  0  0  0  0  0  0  0
    8.6215   11.9572   11.0147 O   0  0  0  0  0  0  0  0  0  0  0  0
    8.4813   12.2148    9.6691 C   0  0  0  0  0  0  0  0  0  0  0  0
    7.3486   12.9217    9.3388 O   0  0  0  0  0  0  0  0  0  0  0  0
    7.1946   14.1073   10.0130 C   0  0  1  0  0  0  0  0  0  0  0  0
    5.8962   14.5372   10.1175 O   0  0  0  0  0  0  0  0  0  0  0  0
    7.9697   14.1239   11.2913 C   0  0  1  0  0  0  0  0  0  0  0  0
    8.6548   15.3477   11.3846 O   0  0  0  0  0  0  0  0  0  0  0  0
    7.1761   13.8055   12.5164 C   0  0  2  0  0  0  0  0  0  0  0  0
    7.6721   14.5430   13.5840 O   0  0  0  0  0  0  0  0  0  0  0  0
    7.0542   12.3530   12.7964 C   0  0  1  0  0  0  0  0  0  0  0  0
    5.7888   11.9399   13.1999 O   0  0  0  0  0  0  0  0  0  0  0  0
    5.5912   12.1486   14.5236 N   0  0  0  0  0  0  0  0  0  0  0  0
    5.2842   13.5038   14.6775 N   0  0  0  0  0  0  0  0  0  0  0  0
    6.1778   14.1177   15.6099 C   0  0  2  0  0  0  0  0  0  0  0  0
    6.2988   15.5501   15.4167 N   0  0  0  0  0  0  0  0  0  0  0  0
    7.4348   13.4471   15.6658 N   0  0  0  0  0  0  0  0  0  0  0  0
    8.2947   13.7427   14.5353 C   0  0  2  0  0  0  0  0  0  0  0  0
    9.4228   14.3814   15.0487 O   0  0  0  0  0  0  0  0  0  0  0  0
   10.3831   14.6017   14.0742 C   0  0  2  0  0  0  0  0  0  0  0  0
    9.9119   15.7093   13.2604 N   0  0  0  0  0  0  0  0  0  0  0  0
   10.6142   13.3662   13.2259 C   0  0  2  0  0  0  0  0  0  0  0  0
   11.2764   12.2704   14.0145 C   0  0  0  0  0  0  0  0  0  0  0  0
   10.7134   12.0169   15.2383 O   0  0  0  0  0  0  0  0  0  0  0  0
   11.8055   11.4726   16.4551 S   0  0  0  0  0  0  0  0  0  0  0  0
   13.2769   12.1138   16.6665 C   0  0  0  0  0  0  0  0  0  0  0  0
   13.7137   13.1435   15.8584 O   0  0  0  0  0  0  0  0  0  0  0  0
   14.0606   12.8963   14.5182 C   0  0  0  0  0  0  0  0  0  0  0  0
   14.5968   14.0683   13.9364 O   0  0  0  0  0  0  0  0  0  0  0  0
   13.7683   14.4782   12.8722 C   0  0  0  0  0  3  0  0  0  0  0  0
   12.9264   13.3227   12.4341 C   0  0  0  0  0  0  0  0  0  0  0  0
   11.5199   13.6970   12.0497 C   0  0  1  0  0  0  0  0  0  0  0  0
   11.0364   12.9400   10.8472 C   0  0  2  0  0  0  0  0  0  0  0  0
   10.9878   11.5850   11.1173 O   0  0  0  0  0  0  0  0  0  0  0  0
   11.8908   13.1868    9.7330 N   0  0  0  0  0  0  0  0  0  0  0  0
   12.8314   12.2909    9.4926 O   0  0  0  0  0  0  0  0  0  0  0  0
   11.2483   13.6867    8.6828 O   0  0  0  0  0  0  0  0  0  0  0  0
   11.8731   13.6072    7.4901 C   0  0  0  0  0  3  0  0  0  0  0  0
   11.4326   14.5962    6.4681 C   0  0  1  0  0  0  0  0  0  0  0  0
   11.1251   14.0374    5.2241 O   0  0  0  0  0  0  0  0  0  0  0  0
   10.2013   15.2942    7.0271 C   0  0  0  0  0  3  0  0  0  0  0  0
    9.3434   14.3161    7.5450 O   0  0  0  0  0  0  0  0  0  0  0  0
    8.5188   13.9761    6.5024 N   0  0  0  0  0  0  0  0  0  0  0  0
    7.5512   12.9833    6.9832 C   0  0  2  0  0  0  0  0  0  0  0  0
    7.7768   11.7234    6.1844 C   0  0  0  0  0  0  0  0  0  0  0  0
    6.6262   11.1728    5.6657 O   0  0  0  0  0  0  0  0  0  0  0  0
    6.4261   11.5885    4.3597 C   0  0  0  0  0  0  0  0  0  0  0  0
    7.6077   11.2011    3.5336 C   0  0  2  0  0  0  0  0  0  0  0  0
    8.8460   11.5999    4.1576 N   0  0  0  0  0  0  0  0  0  0  0  0
    7.5111   11.7224    2.1784 N   0  0  0  0  0  0  0  0  0  0  0  0
    6.5923   10.9627    1.5104 O   0  0  0  0  0  0  0  0  0  0  0  0
    6.9937    9.6298    1.5247 C   0  0  0  0  0  0  0  0  0  0  0  0
    6.2985    8.9352    2.6783 C   0  0  0  0  0  2  0  0  0  0  0  0
    6.1681   13.5280    6.6159 C   0  0  0  0  0  0  0  0  0  0  0  0
    6.2450   14.2079    5.3342 N   0  0  0  0  0  0  0  0  0  0  0  0
    6.4945   15.5217    5.4438 O   0  0  0  0  0  0  0  0  0  0  0  0
    7.0935   16.0508    4.3255 C   0  0  0  0  0  0  0  0  0  0  0  0
    6.8840   15.2277    3.1558 N   0  0  0  0  0  0  0  0  0  0  0  0
    7.5353   13.9260    3.2909 C   0  0  2  0  0  0  0  0  0  0  0  0
    8.9037   14.1530    3.2440 O   0  0  0  0  0  0  0  0  0  0  0  0
    7.0823   13.0859    2.1285 C   0  0  1  0  0  0  0  0  0  0  0  0
    7.6074   13.7137    0.9155 N   0  0  0  0  0  0  0  0  0  0  0  0
    6.7819   14.7548    0.5775 O   0  0  0  0  0  0  0  0  0  0  0  0
    7.6017   12.7644   -0.1805 C   0  0  0  0  0  3  0  0  0  0  0  0
    7.7727   11.4471    0.4070 N   0  0  0  0  0  0  0  0  0  0  0  0
    6.6568   11.2116    1.2228 N   0  0  0  0  0  0  0  0  0  0  0  0
    5.5280   11.2235    0.3886 N   0  0  0  0  0  0  0  0  0  0  0  0
    5.8899   10.8513   -0.9237 N   0  0  0  0  0  0  0  0  0  0  0  0
  2  1  1  1
  2  3  1  0
  3  4  1  0
  4  5  1  6
  4  6  1  0
  6  7  1  6
  6  8  1  0
  8  9  1  6
  8 10  1  0
 10 11  1  1
 11 12  1  0
 13 12  1  6
 13 14  1  0
 14 15  1  0
 15 16  1  0
 16 17  1  0
 17 18  1  1
 17 19  1  0
 19 20  1  1
 19 21  1  0
 21 22  1  1
 21 23  1  0
 23 24  1  6
 24 25  1  0
 25 26  1  0
 26 27  1  0
 27 28  1  6
 27 29  1  0
 29 30  1  0
 30 31  1  1
 31 32  1  0
 32 33  1  6
 32 34  1  0
 34 35  1  1
 35 36  1  0
 36 37  1  0
 37 38  2  3
 38 39  1  0
 39 40  1  0
 40 41  1  0
 41 42  1  0
 42 43  1  0
 44 43  1  1
 44 45  1  0
 45 46  1  1
 45 47  1  0
 47 48  1  0
 47 49  1  0
 49 50  1  0
 50 51  1  0
 51 52  1  6
 51 53  1  0
 53 54  1  0
 54 55  1  0
 56 55  1  6
 56 57  1  0
 57 58  1  0
 58 59  1  0
 59 60  1  0
 60 61  1  1
 60 62  1  0
 62 63  1  0
 63 64  1  0
 64 65  1  0
 56 66  1  0
 66 67  1  0
 67 68  1  0
 68 69  1  0
 69 70  1  0
 70 71  1  0
 71 72  1  6
 71 73  1  0
 73 74  1  6
 74 75  1  0
 74 76  1  0
 76 77  1  0
 77 78  1  0
 78 79  1  0
 79 80  1  0
 10  2  1  0
 23 13  1  0
 30 22  1  0
 44 34  1  0
 73 62  1  0
M  RAD  6  12   2  42   2  50   2  53   2  65   3  76   2
M  END
>  <docking_score>  (1) 
54.621000000000002

$$$$
