
     RDKit          3D

 20 21  0  0  0  0  0  0  0  0999 V2000
   18.8641   -7.8879   -4.2696 C   0  0  2  0  0  0  0  0  0  0  0  0
   18.5995   -8.7113   -5.3488 O   0  0  0  0  0  0  0  0  0  0  0  0
   17.5602   -8.4896   -6.2217 C   0  0  0  0  0  0  0  0  0  0  0  0
   16.7710   -7.4663   -6.0518 C   0  0  0  0  0  0  0  0  0  0  0  0
   16.9841   -6.5457   -4.9319 C   0  0  0  0  0  0  0  0  0  0  0  0
   17.9789   -6.7522   -4.0908 C   0  0  0  0  0  0  0  0  0  0  0  0
   18.0080   -5.7091   -3.0443 C   0  0  0  0  0  0  0  0  0  0  0  0
   19.1158   -4.7051   -3.3367 C   0  0  2  0  0  0  0  0  0  0  0  0
   20.1054   -5.4159   -4.2674 C   0  0  0  0  0  0  0  0  0  0  0  0
   20.6702   -6.4474   -3.5555 O   0  0  0  0  0  0  0  0  0  0  0  0
   20.2763   -7.6964   -3.9158 C   0  0  0  0  0  0  0  0  0  0  0  0
   19.8330   -4.4737   -2.0028 C   0  0  0  0  0  3  0  0  0  0  0  0
   19.4466   -3.0676   -1.5477 C   0  0  0  0  0  0  0  0  0  0  0  0
   18.8667   -2.3408   -2.7540 C   0  0  0  0  0  0  0  0  0  0  0  0
   17.7552   -1.4506   -2.2241 C   0  0  0  0  0  3  0  0  0  0  0  0
   16.4557   -2.2508   -2.3329 C   0  0  0  0  0  0  0  0  0  0  0  0
   16.2753   -2.5688   -3.8054 C   0  0  0  0  0  0  0  0  0  0  0  0
   15.0850   -1.7464   -4.3019 C   0  0  0  0  0  3  0  0  0  0  0  0
   15.4626   -0.9583   -5.5396 C   0  0  0  0  0  0  0  0  0  0  0  0
   14.8333   -1.5638   -6.6100 F   0  0  0  0  0  0  0  0  0  0  0  0
  1  2  1  0
  2  3  1  0
  3  4  2  0
  4  5  1  0
  5  6  2  0
  6  7  1  0
  7  8  1  0
  8  9  1  0
  9 10  1  0
 10 11  1  0
  8 12  1  1
 12 13  1  0
 13 14  1  0
 14 15  1  0
 15 16  1  0
 16 17  1  0
 17 18  1  0
 18 19  1  0
 19 20  1  0
  1 11  1  6
  6  1  1  0
M  RAD  3  12   2  15   2  18   2
M  END
>  <docking_score>  (1) 
-4.069

$$$$

     RDKit          3D

 20 21  0  0  0  0  0  0  0  0999 V2000
   16.2787   -3.5864   -3.8812 C   0  0  2  0  0  0  0  0  0  0  0  0
   15.6740   -2.4327   -3.4165 O   0  0  0  0  0  0  0  0  0  0  0  0
   15.0753   -1.5150   -4.2476 C   0  0  0  0  0  0  0  0  0  0  0  0
   15.0602   -1.7122   -5.5359 C   0  0  0  0  0  0  0  0  0  0  0  0
   15.6795   -2.9106   -6.1080 C   0  0  0  0  0  0  0  0  0  0  0  0
   16.2555   -3.7949   -5.3169 C   0  0  0  0  0  0  0  0  0  0  0  0
   16.8116   -4.9180   -6.1001 C   0  0  0  0  0  0  0  0  0  0  0  0
   15.9055   -6.1371   -5.9831 C   0  0  2  0  0  0  0  0  0  0  0  0
   15.0743   -5.9343   -4.7108 C   0  0  0  0  0  0  0  0  0  0  0  0
   15.9410   -5.9689   -3.6443 O   0  0  0  0  0  0  0  0  0  0  0  0
   16.1677   -4.7784   -3.0310 C   0  0  0  0  0  0  0  0  0  0  0  0
   16.8368   -7.3274   -5.7322 C   0  0  0  0  0  3  0  0  0  0  0  0
   18.2497   -6.7537   -5.6427 C   0  0  0  0  0  0  0  0  0  0  0  0
   19.1332   -7.8147   -5.0000 C   0  0  0  0  0  0  0  0  0  0  0  0
   19.8152   -7.1459   -3.8183 C   0  0  0  0  0  3  0  0  0  0  0  0
   19.6739   -5.6359   -4.0207 C   0  0  0  0  0  0  0  0  0  0  0  0
   19.8816   -5.0038   -2.6572 C   0  0  0  0  0  0  0  0  0  0  0  0
   19.8593   -3.4872   -2.8550 C   0  0  0  0  0  3  0  0  0  0  0  0
   19.3806   -2.7938   -1.5958 C   0  0  0  0  0  0  0  0  0  0  0  0
   18.4192   -1.8793   -1.9805 F   0  0  0  0  0  0  0  0  0  0  0  0
  1  2  1  0
  2  3  1  0
  3  4  2  0
  4  5  1  0
  5  6  2  0
  6  7  1  0
  7  8  1  0
  8  9  1  0
  9 10  1  0
 10 11  1  0
  8 12  1  1
 12 13  1  0
 13 14  1  0
 14 15  1  0
 15 16  1  0
 16 17  1  0
 17 18  1  0
 18 19  1  0
 19 20  1  0
  1 11  1  1
  6  1  1  0
M  RAD  3  12   2  15   2  18   2
M  END
>  <docking_score>  (2) 
-3.9769999999999999

$$$$

     RDKit          3D

 20 21  0  0  0  0  0  0  0  0999 V2000
    3.1968    8.3255    6.0231 C   0  0  2  0  0  0  0  0  0  0  0  0
    3.0704    7.5575    7.1663 O   0  0  0  0  0  0  0  0  0  0  0  0
    3.0432    6.1827    7.1445 C   0  0  0  0  0  0  0  0  0  0  0  0
    3.1386    5.5449    6.0118 C   0  0  0  0  0  0  0  0  0  0  0  0
    3.2753    6.2858    4.7551 C   0  0  0  0  0  0  0  0  0  0  0  0
    3.3022    7.6045    4.7684 C   0  0  0  0  0  0  0  0  0  0  0  0
    3.4455    8.1415    3.3991 C   0  0  0  0  0  0  0  0  0  0  0  0
    4.8773    8.6068    3.1666 C   0  0  2  0  0  0  0  0  0  0  0  0
    5.4829    8.8446    4.5549 C   0  0  0  0  0  0  0  0  0  0  0  0
    4.8027    9.8944    5.1251 O   0  0  0  0  0  0  0  0  0  0  0  0
    3.9670    9.5697    6.1454 C   0  0  0  0  0  0  0  0  0  0  0  0
    4.7669    9.9716    2.4793 C   0  0  0  0  0  3  0  0  0  0  0  0
    6.0181   10.1180    1.6154 C   0  0  0  0  0  0  0  0  0  0  0  0
    6.5374   11.5376    1.8010 C   0  0  0  0  0  0  0  0  0  0  0  0
    5.3379   12.3848    2.1915 C   0  0  0  0  0  3  0  0  0  0  0  0
    5.8661   13.5283    3.0601 C   0  0  0  0  0  0  0  0  0  0  0  0
    6.9014   12.9156    3.9845 C   0  0  0  0  0  0  0  0  0  0  0  0
    7.8858   14.0253    4.3577 C   0  0  0  0  0  3  0  0  0  0  0  0
    8.6612   14.4804    3.1382 C   0  0  0  0  0  0  0  0  0  0  0  0
    9.8177   13.7262    3.0918 F   0  0  0  0  0  0  0  0  0  0  0  0
  1  2  1  0
  2  3  1  0
  3  4  2  0
  4  5  1  0
  5  6  2  0
  6  7  1  0
  7  8  1  0
  8  9  1  0
  9 10  1  0
 10 11  1  0
  8 12  1  6
 12 13  1  0
 13 14  1  0
 14 15  1  0
 15 16  1  0
 16 17  1  0
 17 18  1  0
 18 19  1  0
 19 20  1  0
  1 11  1  1
  6  1  1  0
M  RAD  3  12   2  15   2  18   2
M  END
>  <docking_score>  (3) 
-3.661

$$$$
