
     RDKit          3D

 31 31  0  0  0  0  0  0  0  0999 V2000
   15.9173   -3.6819   -0.8461 C   0  0  0  0  0  0  0  0  0  0  0  0
   16.9777   -3.1419   -1.7987 C   0  0  0  0  0  0  0  0  0  0  0  0
   16.6742   -1.7088   -2.1981 C   0  0  0  0  0  0  0  0  0  0  0  0
   18.3424   -3.1697   -1.1272 C   0  0  0  0  0  0  0  0  0  0  0  0
   19.3261   -3.9281   -2.0079 C   0  0  0  0  0  0  0  0  0  0  0  0
   20.6110   -3.1483   -2.1575 C   0  0  0  0  0  0  0  0  0  0  0  0
   21.3751   -3.6878   -3.3447 C   0  0  1  0  0  0  0  0  0  0  0  0
   21.1029   -5.1305   -3.6064 C   0  0  0  0  0  0  0  0  0  0  0  0
   21.1970   -2.8167   -4.5687 C   0  0  0  0  0  3  0  0  0  0  0  0
   20.1932   -3.3730   -5.5304 C   0  0  0  0  0  0  0  0  0  0  0  0
   20.4708   -2.9890   -6.9469 C   0  0  0  0  0  0  0  0  0  0  0  0
   19.2260   -2.4024   -7.5745 C   0  0  2  0  0  0  0  0  0  0  0  0
   19.6891   -1.5315   -8.7397 C   0  0  0  0  0  0  0  0  0  0  0  0
   18.4272   -1.5451   -6.6035 C   0  0  0  0  0  0  0  0  0  0  0  0
   16.9603   -1.9530   -6.6043 C   0  0  2  0  0  0  0  0  0  0  0  0
   16.3805   -1.3382   -5.4031 N   0  0  0  0  0  0  0  0  0  0  0  0
   16.9160   -3.4548   -6.3174 C   0  0  0  0  0  0  0  0  0  0  0  0
   15.9204   -3.8104   -5.2585 C   0  0  0  0  0  0  0  0  0  0  0  0
   16.0501   -5.2074   -4.7358 C   0  0  2  0  0  0  0  0  0  0  0  0
   15.2294   -5.4026   -3.4948 C   0  0  0  0  0  0  0  0  0  0  0  0
   17.5087   -5.4489   -4.4167 C   0  0  0  0  0  0  0  0  0  0  0  0
   17.7989   -6.8808   -4.0597 C   0  0  0  0  0  0  0  0  0  0  0  0
   18.6211   -7.5788   -5.1223 C   0  0  2  0  0  0  0  0  0  0  0  0
   19.9651   -7.8923   -4.5129 C   0  0  0  0  0  0  0  0  0  0  0  0
   18.6833   -6.7589   -6.2180 O   0  0  0  0  0  0  0  0  0  0  0  0
   19.4664   -7.2040   -7.2466 C   0  0  0  0  0  0  0  0  0  0  0  0
   20.6333   -8.0548   -6.8128 C   0  0  0  0  0  0  0  0  0  0  0  0
   20.1936   -9.4168   -6.3265 C   0  0  0  0  0  0  0  0  0  0  0  0
   18.7271   -9.5726   -6.5987 C   0  0  0  0  0  0  0  0  0  0  0  0
   17.9337   -8.8930   -5.5078 C   0  0  2  0  0  0  0  0  0  0  0  0
   16.5599   -8.5575   -6.0593 C   0  0  0  0  0  2  0  0  0  0  0  0
  1  2  1  0
  2  3  1  0
  2  4  1  0
  4  5  1  0
  5  6  1  0
  6  7  1  0
  7  8  1  6
  7  9  1  0
  9 10  1  0
 10 11  1  0
 11 12  1  0
 12 13  1  6
 12 14  1  0
 14 15  1  0
 15 16  1  1
 15 17  1  0
 17 18  1  0
 18 19  1  0
 19 20  1  1
 19 21  1  0
 21 22  1  0
 22 23  1  0
 23 24  1  1
 23 25  1  0
 25 26  1  0
 26 27  1  0
 27 28  1  0
 28 29  1  0
 29 30  1  0
 30 31  1  6
 30 23  1  0
M  RAD  2   9   2  31   3
M  END
>  <docking_score>  (1) 
-0.82499999999999996

$$$$

     RDKit          3D

 31 31  0  0  0  0  0  0  0  0999 V2000
   14.2506   -0.2278   -5.9521 C   0  0  0  0  0  0  0  0  0  0  0  0
   15.0419   -1.3414   -5.2761 C   0  0  0  0  0  0  0  0  0  0  0  0
   14.1178   -2.3127   -4.5631 C   0  0  0  0  0  0  0  0  0  0  0  0
   15.8381   -2.1175   -6.3142 C   0  0  0  0  0  0  0  0  0  0  0  0
   15.9924   -3.5625   -5.8596 C   0  0  0  0  0  0  0  0  0  0  0  0
   14.7770   -4.3710   -6.2475 C   0  0  0  0  0  0  0  0  0  0  0  0
   14.8783   -4.7345   -7.7110 C   0  0  1  0  0  0  0  0  0  0  0  0
   14.2187   -3.7402   -8.6056 C   0  0  0  0  0  0  0  0  0  0  0  0
   16.3029   -5.0452   -8.1142 C   0  0  0  0  0  3  0  0  0  0  0  0
   17.0371   -3.8387   -8.6112 C   0  0  0  0  0  0  0  0  0  0  0  0
   18.5099   -4.0602   -8.7237 C   0  0  0  0  0  0  0  0  0  0  0  0
   19.2443   -3.1200   -7.7940 C   0  0  2  0  0  0  0  0  0  0  0  0
   20.5761   -2.7903   -8.4635 C   0  0  0  0  0  0  0  0  0  0  0  0
   19.5162   -3.7371   -6.4297 C   0  0  0  0  0  0  0  0  0  0  0  0
   20.7736   -4.5948   -6.4665 C   0  0  2  0  0  0  0  0  0  0  0  0
   21.3825   -4.3439   -7.7793 N   0  0  0  0  0  0  0  0  0  0  0  0
   20.3160   -6.0526   -6.5363 C   0  0  0  0  0  0  0  0  0  0  0  0
   18.8489   -6.2091   -6.2871 C   0  0  0  0  0  0  0  0  0  0  0  0
   18.5137   -6.9555   -5.0332 C   0  0  2  0  0  0  0  0  0  0  0  0
   17.0767   -6.7570   -4.6493 C   0  0  0  0  0  0  0  0  0  0  0  0
   19.4056   -6.4316   -3.9298 C   0  0  0  0  0  0  0  0  0  0  0  0
   18.6312   -5.9227   -2.7452 C   0  0  0  0  0  0  0  0  0  0  0  0
   18.9890   -4.4924   -2.4009 C   0  0  2  0  0  0  0  0  0  0  0  0
   17.9494   -3.9937   -1.4279 C   0  0  0  0  0  0  0  0  0  0  0  0
   19.0495   -3.7770   -3.5675 O   0  0  0  0  0  0  0  0  0  0  0  0
   19.2790   -2.4363   -3.4285 C   0  0  0  0  0  0  0  0  0  0  0  0
   18.7389   -1.8451   -2.1509 C   0  0  0  0  0  0  0  0  0  0  0  0
   19.5326   -2.2841   -0.9416 C   0  0  0  0  0  0  0  0  0  0  0  0
   20.7412   -3.0386   -1.4096 C   0  0  0  0  0  0  0  0  0  0  0  0
   20.3598   -4.4676   -1.7163 C   0  0  2  0  0  0  0  0  0  0  0  0
   21.3785   -5.0317   -2.6900 C   0  0  0  0  0  2  0  0  0  0  0  0
  1  2  1  0
  2  3  1  0
  2  4  1  0
  4  5  1  0
  5  6  1  0
  6  7  1  0
  7  8  1  6
  7  9  1  0
  9 10  1  0
 10 11  1  0
 11 12  1  0
 12 13  1  6
 12 14  1  0
 14 15  1  0
 15 16  1  6
 15 17  1  0
 17 18  1  0
 18 19  1  0
 19 20  1  1
 19 21  1  0
 21 22  1  0
 22 23  1  0
 23 24  1  1
 23 25  1  0
 25 26  1  0
 26 27  1  0
 27 28  1  0
 28 29  1  0
 29 30  1  0
 30 31  1  6
 30 23  1  0
M  RAD  2   9   2  31   3
M  END
>  <docking_score>  (2) 
0.27200000000000002

$$$$

     RDKit          3D

 31 31  0  0  0  0  0  0  0  0999 V2000
   19.3492   -2.8555   -1.8768 C   0  0  0  0  0  0  0  0  0  0  0  0
   17.8449   -3.0137   -2.0644 C   0  0  0  0  0  0  0  0  0  0  0  0
   17.1801   -1.6698   -2.3045 C   0  0  0  0  0  0  0  0  0  0  0  0
   17.5615   -3.9055   -3.2637 C   0  0  0  0  0  0  0  0  0  0  0  0
   17.0125   -5.2423   -2.7838 C   0  0  0  0  0  0  0  0  0  0  0  0
   15.7810   -5.6212   -3.5719 C   0  0  0  0  0  0  0  0  0  0  0  0
   16.1743   -5.8517   -5.0129 C   0  0  1  0  0  0  0  0  0  0  0  0
   16.8525   -7.1621   -5.2295 C   0  0  0  0  0  0  0  0  0  0  0  0
   15.0136   -5.6191   -5.9548 C   0  0  0  0  0  3  0  0  0  0  0  0
   14.5634   -4.1912   -5.9726 C   0  0  0  0  0  0  0  0  0  0  0  0
   15.2580   -3.3759   -7.0137 C   0  0  0  0  0  0  0  0  0  0  0  0
   15.4743   -1.9681   -6.5051 C   0  0  2  0  0  0  0  0  0  0  0  0
   16.9434   -1.8665   -6.1025 C   0  0  0  0  0  0  0  0  0  0  0  0
   14.6072   -1.6402   -5.2982 C   0  0  0  0  0  0  0  0  0  0  0  0
   13.8129   -0.3631   -5.5354 C   0  0  2  0  0  0  0  0  0  0  0  0
   14.7568    0.7368   -5.2979 N   0  0  0  0  0  0  0  0  0  0  0  0
   12.8043   -0.2474   -4.3914 C   0  0  0  0  0  0  0  0  0  0  0  0
   11.6032   -1.1171   -4.5913 C   0  0  0  0  0  0  0  0  0  0  0  0
   10.3161   -0.5036   -4.1346 C   0  0  2  0  0  0  0  0  0  0  0  0
   10.0641   -0.7851   -2.6823 C   0  0  0  0  0  0  0  0  0  0  0  0
    9.1996   -1.0992   -4.9629 C   0  0  0  0  0  0  0  0  0  0  0  0
    7.8618   -0.4755   -4.6743 C   0  0  0  0  0  0  0  0  0  0  0  0
    7.0334   -0.2952   -5.9288 C   0  0  2  0  0  0  0  0  0  0  0  0
    7.9504    0.2509   -6.9950 C   0  0  0  0  0  0  0  0  0  0  0  0
    5.9785    0.5250   -5.6270 O   0  0  0  0  0  0  0  0  0  0  0  0
    5.1718    0.8627   -6.6780 C   0  0  0  0  0  0  0  0  0  0  0  0
    5.8798    0.9213   -8.0079 C   0  0  0  0  0  0  0  0  0  0  0  0
    6.2567   -0.4531   -8.5120 C   0  0  0  0  0  0  0  0  0  0  0  0
    5.6411   -1.4802   -7.6091 C   0  0  0  0  0  0  0  0  0  0  0  0
    6.5041   -1.6599   -6.3825 C   0  0  2  0  0  0  0  0  0  0  0  0
    5.6359   -2.2179   -5.2695 C   0  0  0  0  0  2  0  0  0  0  0  0
  1  2  1  0
  2  3  1  0
  2  4  1  0
  4  5  1  0
  5  6  1  0
  6  7  1  0
  7  8  1  1
  7  9  1  0
  9 10  1  0
 10 11  1  0
 11 12  1  0
 12 13  1  1
 12 14  1  0
 14 15  1  0
 15 16  1  1
 15 17  1  0
 17 18  1  0
 18 19  1  0
 19 20  1  1
 19 21  1  0
 21 22  1  0
 22 23  1  0
 23 24  1  6
 23 25  1  0
 25 26  1  0
 26 27  1  0
 27 28  1  0
 28 29  1  0
 29 30  1  0
 30 31  1  1
 30 23  1  0
M  RAD  2   9   2  31   3
M  END
>  <docking_score>  (3) 
0.94899999999999995

$$$$
