
     RDKit          3D

 24 25  0  0  0  0  0  0  0  0999 V2000
   20.6317   -4.8418   -2.5760 C   0  0  0  0  0  0  0  0  0  0  0  0
   19.5968   -3.9043   -2.0332 C   0  0  1  0  0  0  0  0  0  0  0  0
   20.1438   -3.0906   -0.9003 C   0  0  0  0  0  0  0  0  0  0  0  0
   20.0850   -1.6087   -1.2393 C   0  0  2  0  0  0  0  0  0  0  0  0
   18.7796   -1.2374   -1.5967 O   0  0  0  0  0  0  0  0  0  0  0  0
   20.9415   -1.4303   -2.4863 C   0  0  2  0  0  0  0  0  0  0  0  0
   21.0388   -0.0822   -2.8074 O   0  0  0  0  0  0  0  0  0  0  0  0
   20.3638   -2.2479   -3.6320 C   0  0  1  0  0  0  0  0  0  0  0  0
   21.3119   -3.1454   -4.0612 O   0  0  0  0  0  0  0  0  0  0  0  0
   19.1155   -2.9876   -3.1169 C   0  0  1  0  0  0  0  0  0  0  0  0
   18.6466   -3.7900   -4.1973 N   0  0  0  0  0  0  0  0  0  0  0  0
   17.4710   -3.1661   -4.8654 C   0  0  1  0  0  0  0  0  0  0  0  0
   17.3995   -3.7982   -6.2277 C   0  0  0  0  0  0  0  0  0  0  0  0
   16.3980   -3.0902   -7.1277 C   0  0  2  0  0  0  0  0  0  0  0  0
   15.6335   -4.0389   -7.7992 O   0  0  0  0  0  0  0  0  0  0  0  0
   17.1138   -2.2766   -8.1808 C   0  0  0  0  0  0  0  0  0  0  0  0
   15.6228   -2.2086   -6.3849 O   0  0  0  0  0  0  0  0  0  0  0  0
   14.6549   -2.8411   -5.6259 C   0  0  1  0  0  0  0  0  0  0  0  0
   14.4158   -4.1526   -6.0111 O   0  0  0  0  0  0  0  0  0  0  0  0
   15.0835   -2.8416   -4.2017 C   0  0  2  0  0  0  0  0  0  0  0  0
   15.1565   -1.5806   -3.6483 O   0  0  0  0  0  0  0  0  0  0  0  0
   16.3267   -3.6683   -3.9365 C   0  0  1  0  0  0  0  0  0  0  0  0
   16.0997   -4.9642   -4.4176 O   0  0  0  0  0  0  0  0  0  0  0  0
   15.8552   -5.7087   -3.3350 O   0  0  0  0  0  0  0  0  0  0  0  0
  2  1  1  6
  2  3  1  0
  3  4  1  0
  4  5  1  6
  4  6  1  0
  6  7  1  6
  6  8  1  0
  8  9  1  1
  8 10  1  0
 10 11  1  6
 12 11  1  1
 12 13  1  0
 13 14  1  0
 14 15  1  0
 14 16  1  6
 14 17  1  0
 17 18  1  0
 18 19  1  6
 18 20  1  0
 20 21  1  6
 20 22  1  0
 22 23  1  6
 23 24  1  0
 10  2  1  0
 22 12  1  0
M  END
>  <docking_score>  (1) 
-5.3700000000000001

$$$$

     RDKit          3D

 24 25  0  0  0  0  0  0  0  0999 V2000
   18.5692   -1.3688   -1.9735 C   0  0  0  0  0  0  0  0  0  0  0  0
   19.1912   -1.7409   -3.2847 C   0  0  1  0  0  0  0  0  0  0  0  0
   20.6867   -1.7439   -3.1934 C   0  0  0  0  0  0  0  0  0  0  0  0
   21.2312   -3.1293   -3.5075 C   0  0  2  0  0  0  0  0  0  0  0  0
   20.7601   -3.5719   -4.7533 O   0  0  0  0  0  0  0  0  0  0  0  0
   20.6312   -4.0616   -2.4629 C   0  0  2  0  0  0  0  0  0  0  0  0
   21.1631   -5.3373   -2.6027 O   0  0  0  0  0  0  0  0  0  0  0  0
   19.1142   -4.0616   -2.5797 C   0  0  1  0  0  0  0  0  0  0  0  0
   18.5754   -3.6490   -1.3847 O   0  0  0  0  0  0  0  0  0  0  0  0
   18.7164   -3.0968   -3.7118 C   0  0  1  0  0  0  0  0  0  0  0  0
   17.2918   -3.0757   -3.7429 N   0  0  0  0  0  0  0  0  0  0  0  0
   16.7633   -3.8502   -4.8998 C   0  0  1  0  0  0  0  0  0  0  0  0
   16.0149   -5.0086   -4.3009 C   0  0  0  0  0  0  0  0  0  0  0  0
   15.6211   -6.0327   -5.3546 C   0  0  2  0  0  0  0  0  0  0  0  0
   14.3038   -6.4265   -5.1422 O   0  0  0  0  0  0  0  0  0  0  0  0
   16.4758   -7.2730   -5.2344 C   0  0  0  0  0  0  0  0  0  0  0  0
   15.8250   -5.5159   -6.6279 O   0  0  0  0  0  0  0  0  0  0  0  0
   14.8599   -4.5995   -7.0046 C   0  0  1  0  0  0  0  0  0  0  0  0
   13.7190   -4.6381   -6.2157 O   0  0  0  0  0  0  0  0  0  0  0  0
   15.4380   -3.2314   -6.9263 C   0  0  2  0  0  0  0  0  0  0  0  0
   16.4604   -3.0134   -7.8256 O   0  0  0  0  0  0  0  0  0  0  0  0
   15.7967   -2.7977   -5.5183 C   0  0  1  0  0  0  0  0  0  0  0  0
   14.6562   -2.9332   -4.7161 O   0  0  0  0  0  0  0  0  0  0  0  0
   14.0203   -1.7607   -4.7995 O   0  0  0  0  0  0  0  0  0  0  0  0
  2  1  1  1
  2  3  1  0
  3  4  1  0
  4  5  1  6
  4  6  1  0
  6  7  1  6
  6  8  1  0
  8  9  1  1
  8 10  1  0
 10 11  1  1
 12 11  1  1
 12 13  1  0
 13 14  1  0
 14 15  1  0
 14 16  1  1
 14 17  1  0
 17 18  1  0
 18 19  1  1
 18 20  1  0
 20 21  1  6
 20 22  1  0
 22 23  1  1
 23 24  1  0
 10  2  1  0
 22 12  1  0
M  END
>  <docking_score>  (2) 
-5.0099999999999998

$$$$

     RDKit          3D

 24 25  0  0  0  0  0  0  0  0999 V2000
   17.1492   -2.3466   -8.7400 C   0  0  0  0  0  0  0  0  0  0  0  0
   16.2147   -3.0846   -7.8308 C   0  0  1  0  0  0  0  0  0  0  0  0
   15.3144   -3.9983   -8.6052 C   0  0  0  0  0  0  0  0  0  0  0  0
   15.5241   -5.4401   -8.1675 C   0  0  2  0  0  0  0  0  0  0  0  0
   15.3602   -5.5613   -6.7788 O   0  0  0  0  0  0  0  0  0  0  0  0
   16.9851   -5.7578   -8.4591 C   0  0  2  0  0  0  0  0  0  0  0  0
   17.2425   -7.0970   -8.1939 O   0  0  0  0  0  0  0  0  0  0  0  0
   17.8863   -4.8345   -7.6527 C   0  0  1  0  0  0  0  0  0  0  0  0
   18.6813   -4.1212   -8.5174 O   0  0  0  0  0  0  0  0  0  0  0  0
   16.9950   -3.8845   -6.8320 C   0  0  1  0  0  0  0  0  0  0  0  0
   17.8741   -2.9969   -6.1463 N   0  0  0  0  0  0  0  0  0  0  0  0
   17.8821   -3.2660   -4.6816 C   0  0  1  0  0  0  0  0  0  0  0  0
   18.5808   -2.0889   -4.0596 C   0  0  0  0  0  0  0  0  0  0  0  0
   18.8890   -2.3267   -2.5891 C   0  0  2  0  0  0  0  0  0  0  0  0
   18.5652   -1.1857   -1.8618 O   0  0  0  0  0  0  0  0  0  0  0  0
   20.3667   -2.5709   -2.3895 C   0  0  0  0  0  0  0  0  0  0  0  0
   18.2214   -3.4569   -2.1341 O   0  0  0  0  0  0  0  0  0  0  0  0
   16.8705   -3.2447   -1.9266 C   0  0  1  0  0  0  0  0  0  0  0  0
   16.5211   -1.9029   -1.8692 O   0  0  0  0  0  0  0  0  0  0  0  0
   16.1072   -3.8809   -3.0332 C   0  0  2  0  0  0  0  0  0  0  0  0
   16.2190   -5.2551   -3.0602 O   0  0  0  0  0  0  0  0  0  0  0  0
   16.3528   -3.2486   -4.3893 C   0  0  1  0  0  0  0  0  0  0  0  0
   16.0849   -1.8774   -4.2863 O   0  0  0  0  0  0  0  0  0  0  0  0
   14.7594   -1.7627   -4.4127 O   0  0  0  0  0  0  0  0  0  0  0  0
  2  1  1  6
  2  3  1  0
  3  4  1  0
  4  5  1  1
  4  6  1  0
  6  7  1  1
  6  8  1  0
  8  9  1  6
  8 10  1  0
 10 11  1  6
 12 11  1  6
 12 13  1  0
 13 14  1  0
 14 15  1  0
 14 16  1  6
 14 17  1  0
 17 18  1  0
 18 19  1  6
 18 20  1  0
 20 21  1  6
 20 22  1  0
 22 23  1  1
 23 24  1  0
 10  2  1  0
 22 12  1  0
M  END
>  <docking_score>  (3) 
-4.9560000000000004

$$$$
