
     RDKit          3D

 11 10  0  0  0  0  0  0  0  0999 V2000
    5.8955    3.0890   -4.0746 O   0  0  0  0  0  0  0  0  0  0  0  0
    6.8154    2.3869   -4.8550 C   0  0  0  0  0  0  0  0  0  0  0  0
    6.0976    1.7220   -6.0179 C   0  0  0  0  0  3  0  0  0  0  0  0
    6.1718    0.2992   -5.8685 N   0  0  0  0  0  0  0  0  0  0  0  0
    6.3474   -0.4481   -7.0641 C   0  0  2  0  0  0  0  0  0  0  0  0
    6.4463    0.3838   -8.3237 C   0  0  0  0  0  0  0  0  0  0  0  0
    5.2602   -1.3264   -7.2912 O   0  0  0  0  0  0  0  0  0  0  0  0
    5.7924   -2.5886   -7.0979 C   0  0  1  0  0  0  0  0  0  0  0  0
    5.6664   -2.9163   -5.7521 O   0  0  0  0  0  0  0  0  0  0  0  0
    5.2264   -3.6404   -7.9830 C   0  0  0  0  0  3  0  0  0  0  0  0
    5.7057   -4.8716   -7.5367 O   0  0  0  0  0  0  0  0  0  0  0  0
  1  2  1  0
  2  3  1  0
  3  4  1  0
  4  5  1  0
  5  6  1  6
  5  7  1  0
  7  8  1  0
  8  9  1  1
  8 10  1  0
 10 11  1  0
M  RAD  2   3   2  10   2
M  END
>  <docking_score>  (1) 
-3.2690000000000001

$$$$

     RDKit          3D

 11 10  0  0  0  0  0  0  0  0999 V2000
   16.7504   -3.5394   -1.7844 O   0  0  0  0  0  0  0  0  0  0  0  0
   16.4092   -4.8484   -2.1281 C   0  0  0  0  0  0  0  0  0  0  0  0
   16.8633   -5.1393   -3.5490 C   0  0  0  0  0  3  0  0  0  0  0  0
   15.8130   -5.8130   -4.2527 N   0  0  0  0  0  0  0  0  0  0  0  0
   15.0161   -5.0075   -5.1101 C   0  0  2  0  0  0  0  0  0  0  0  0
   14.3329   -5.7579   -6.2319 C   0  0  0  0  0  0  0  0  0  0  0  0
   15.7906   -4.0128   -5.7548 O   0  0  0  0  0  0  0  0  0  0  0  0
   14.9552   -2.9117   -5.8135 C   0  0  1  0  0  0  0  0  0  0  0  0
   14.7234   -2.4675   -4.5160 O   0  0  0  0  0  0  0  0  0  0  0  0
   15.4347   -1.8185   -6.6995 C   0  0  0  0  0  3  0  0  0  0  0  0
   15.2660   -2.2386   -8.0186 O   0  0  0  0  0  0  0  0  0  0  0  0
  1  2  1  0
  2  3  1  0
  3  4  1  0
  4  5  1  0
  5  6  1  6
  5  7  1  0
  7  8  1  0
  8  9  1  1
  8 10  1  0
 10 11  1  0
M  RAD  2   3   2  10   2
M  END
>  <docking_score>  (2) 
-2.8809999999999998

$$$$

     RDKit          3D

 11 10  0  0  0  0  0  0  0  0999 V2000
   13.8837   -0.2613   -3.8441 O   0  0  0  0  0  0  0  0  0  0  0  0
   13.8038   -0.1987   -5.2361 C   0  0  0  0  0  0  0  0  0  0  0  0
   14.9424   -0.9962   -5.8504 C   0  0  0  0  0  3  0  0  0  0  0  0
   15.1248   -2.2083   -5.1089 N   0  0  0  0  0  0  0  0  0  0  0  0
   16.4482   -2.4806   -4.6691 C   0  0  2  0  0  0  0  0  0  0  0  0
   17.5274   -1.6930   -5.3784 C   0  0  0  0  0  0  0  0  0  0  0  0
   16.7934   -3.8386   -4.8733 O   0  0  0  0  0  0  0  0  0  0  0  0
   16.0747   -4.5241   -3.9103 C   0  0  1  0  0  0  0  0  0  0  0  0
   15.4385   -5.5998   -4.5209 O   0  0  0  0  0  0  0  0  0  0  0  0
   16.8712   -4.9457   -2.7280 C   0  0  0  0  0  3  0  0  0  0  0  0
   16.4682   -4.1635   -1.6460 O   0  0  0  0  0  0  0  0  0  0  0  0
  1  2  1  0
  2  3  1  0
  3  4  1  0
  4  5  1  0
  5  6  1  6
  5  7  1  0
  7  8  1  0
  8  9  1  6
  8 10  1  0
 10 11  1  0
M  RAD  2   3   2  10   2
M  END
>  <docking_score>  (3) 
-2.8479999999999999

$$$$
