
     RDKit          3D

 23 24  0  0  0  0  0  0  0  0999 V2000
    3.5883   13.0382    2.3095 C   0  0  0  0  0  0  0  0  0  0  0  0
    5.0702   13.0486    2.5452 C   0  0  1  0  0  0  0  0  0  0  0  0
    5.4881   14.0043    3.6370 C   0  0  0  0  0  0  0  0  0  0  0  0
    6.9543   14.3096    3.4492 C   0  0  2  0  0  0  0  0  0  0  0  0
    7.1600   15.5329    2.8302 O   0  0  0  0  0  0  0  0  0  0  0  0
    7.5847   13.1621    2.6902 C   0  0  2  0  0  0  0  0  0  0  0  0
    7.1789   13.2520    1.3494 O   0  0  0  0  0  0  0  0  0  0  0  0
    7.0514   11.8843    3.3261 C   0  0  1  0  0  0  0  0  0  0  0  0
    6.9093   12.1103    4.7017 O   0  0  0  0  0  0  0  0  0  0  0  0
    5.6522   11.6740    2.7587 C   0  0  1  0  0  0  0  0  0  0  0  0
    4.8696   10.9572    3.7626 N   0  0  0  0  0  0  0  0  0  0  0  0
    5.1551    9.5302    3.6809 C   0  0  1  0  0  0  0  0  0  0  0  0
    5.4252    8.8904    4.9865 C   0  0  0  0  0  0  0  0  0  0  0  0
    4.2600    8.2877    5.6933 C   0  0  2  0  0  0  0  0  0  0  0  0
    4.4006    8.3736    7.0865 O   0  0  0  0  0  0  0  0  0  0  0  0
    4.1898    6.7961    5.3808 C   0  0  1  0  0  0  0  0  0  0  0  0
    3.1033    6.2205    6.0411 O   0  0  0  0  0  0  0  0  0  0  0  0
    4.0515    6.7020    3.8741 C   0  0  1  0  0  0  0  0  0  0  0  0
    3.5282    5.4952    3.4543 O   0  0  0  0  0  0  0  0  0  0  0  0
    3.2482    7.8954    3.4364 C   0  0  2  0  0  0  0  0  0  0  0  0
    2.2602    7.5474    2.5144 O   0  0  0  0  0  0  0  0  0  0  0  0
    4.1591    8.8854    2.7962 C   0  0  1  0  0  0  0  0  0  0  0  0
    3.3918    9.8016    2.0885 O   0  0  0  0  0  0  0  0  0  0  0  0
  2  1  1  1
  2  3  1  0
  3  4  1  0
  4  5  1  6
  4  6  1  0
  6  7  1  6
  6  8  1  0
  8  9  1  1
  8 10  1  0
 10 11  1  1
 12 11  1  1
 12 13  1  0
 13 14  1  0
 14 15  1  1
 14 16  1  0
 16 17  1  1
 16 18  1  0
 18 19  1  1
 18 20  1  0
 20 21  1  6
 20 22  1  0
 22 23  1  1
 10  2  1  0
 22 12  1  0
M  END
>  <docking_score>  (1) 
-5.1749999999999998

$$$$

     RDKit          3D

 23 24  0  0  0  0  0  0  0  0999 V2000
   16.5927   -1.9705   -2.6201 C   0  0  0  0  0  0  0  0  0  0  0  0
   16.0665   -2.2659   -3.9940 C   0  0  1  0  0  0  0  0  0  0  0  0
   16.2128   -1.1026   -4.9454 C   0  0  0  0  0  0  0  0  0  0  0  0
   15.2383   -1.3067   -6.0799 C   0  0  2  0  0  0  0  0  0  0  0  0
   14.0917   -0.5419   -5.9300 O   0  0  0  0  0  0  0  0  0  0  0  0
   14.9389   -2.7861   -6.1881 C   0  0  2  0  0  0  0  0  0  0  0  0
   14.0960   -3.1387   -5.1225 O   0  0  0  0  0  0  0  0  0  0  0  0
   16.2780   -3.5034   -6.0711 C   0  0  1  0  0  0  0  0  0  0  0  0
   17.2503   -2.7127   -6.6980 O   0  0  0  0  0  0  0  0  0  0  0  0
   16.6176   -3.5388   -4.5854 C   0  0  1  0  0  0  0  0  0  0  0  0
   18.0733   -3.5499   -4.4633 N   0  0  0  0  0  0  0  0  0  0  0  0
   18.5072   -4.8107   -3.8746 C   0  0  1  0  0  0  0  0  0  0  0  0
   17.4761   -5.8707   -3.8841 C   0  0  0  0  0  0  0  0  0  0  0  0
   17.4703   -6.7921   -5.0553 C   0  0  2  0  0  0  0  0  0  0  0  0
   16.1727   -7.2270   -5.3634 O   0  0  0  0  0  0  0  0  0  0  0  0
   18.2545   -8.0555   -4.7141 C   0  0  1  0  0  0  0  0  0  0  0  0
   18.2525   -8.9275   -5.8036 O   0  0  0  0  0  0  0  0  0  0  0  0
   19.6534   -7.5851   -4.3678 C   0  0  1  0  0  0  0  0  0  0  0  0
   20.6008   -8.5837   -4.4751 O   0  0  0  0  0  0  0  0  0  0  0  0
   19.9353   -6.3874   -5.2323 C   0  0  2  0  0  0  0  0  0  0  0  0
   21.2090   -6.4440   -5.7997 O   0  0  0  0  0  0  0  0  0  0  0  0
   19.8477   -5.1556   -4.3987 C   0  0  1  0  0  0  0  0  0  0  0  0
   20.4433   -4.1087   -5.0902 O   0  0  0  0  0  0  0  0  0  0  0  0
  2  1  1  1
  2  3  1  0
  3  4  1  0
  4  5  1  1
  4  6  1  0
  6  7  1  1
  6  8  1  0
  8  9  1  6
  8 10  1  0
 10 11  1  6
 12 11  1  6
 12 13  1  0
 13 14  1  0
 14 15  1  1
 14 16  1  0
 16 17  1  6
 16 18  1  0
 18 19  1  6
 18 20  1  0
 20 21  1  1
 20 22  1  0
 22 23  1  6
 10  2  1  0
 22 12  1  0
M  END
>  <docking_score>  (2) 
-4.915

$$$$

     RDKit          3D

 23 24  0  0  0  0  0  0  0  0999 V2000
   15.8200   -1.5162   -6.0485 C   0  0  0  0  0  0  0  0  0  0  0  0
   16.4607   -2.1306   -4.8387 C   0  0  1  0  0  0  0  0  0  0  0  0
   15.5553   -2.1380   -3.6302 C   0  0  0  0  0  0  0  0  0  0  0  0
   16.4216   -2.2883   -2.4034 C   0  0  2  0  0  0  0  0  0  0  0  0
   16.6320   -1.0789   -1.7589 O   0  0  0  0  0  0  0  0  0  0  0  0
   17.7143   -2.9593   -2.8143 C   0  0  2  0  0  0  0  0  0  0  0  0
   18.4927   -2.0180   -3.5059 O   0  0  0  0  0  0  0  0  0  0  0  0
   17.3253   -4.1107   -3.7332 C   0  0  1  0  0  0  0  0  0  0  0  0
   16.1166   -4.6471   -3.2696 O   0  0  0  0  0  0  0  0  0  0  0  0
   17.0483   -3.4945   -5.0997 C   0  0  1  0  0  0  0  0  0  0  0  0
   16.0625   -4.3358   -5.7740 N   0  0  0  0  0  0  0  0  0  0  0  0
   16.7017   -5.0660   -6.8615 C   0  0  1  0  0  0  0  0  0  0  0  0
   18.0914   -4.6444   -7.1402 C   0  0  0  0  0  0  0  0  0  0  0  0
   19.1735   -5.3888   -6.4363 C   0  0  2  0  0  0  0  0  0  0  0  0
   20.2744   -4.5634   -6.1631 O   0  0  0  0  0  0  0  0  0  0  0  0
   19.7062   -6.4935   -7.3437 C   0  0  1  0  0  0  0  0  0  0  0  0
   20.7232   -7.1953   -6.6950 O   0  0  0  0  0  0  0  0  0  0  0  0
   18.5141   -7.3784   -7.6504 C   0  0  1  0  0  0  0  0  0  0  0  0
   18.8745   -8.6448   -8.0657 O   0  0  0  0  0  0  0  0  0  0  0  0
   17.6396   -7.3683   -6.4271 C   0  0  2  0  0  0  0  0  0  0  0  0
   17.1970   -8.6491   -6.0937 O   0  0  0  0  0  0  0  0  0  0  0  0
   16.4475   -6.5140   -6.6896 C   0  0  1  0  0  0  0  0  0  0  0  0
   15.4873   -6.7829   -5.7229 O   0  0  0  0  0  0  0  0  0  0  0  0
  2  1  1  6
  2  3  1  0
  3  4  1  0
  4  5  1  6
  4  6  1  0
  6  7  1  6
  6  8  1  0
  8  9  1  1
  8 10  1  0
 10 11  1  1
 12 11  1  1
 12 13  1  0
 13 14  1  0
 14 15  1  6
 14 16  1  0
 16 17  1  1
 16 18  1  0
 18 19  1  1
 18 20  1  0
 20 21  1  6
 20 22  1  0
 22 23  1  1
 10  2  1  0
 22 12  1  0
M  END
>  <docking_score>  (3) 
-4.4290000000000003

$$$$
