
     RDKit          3D

 86 86  0  0  0  0  0  0  0  0999 V2000
   17.4841   -3.3130   -0.4596 C   0  0  0  0  0  0  0  0  0  0  0  0
   16.2603   -3.6393    0.3439 C   0  0  0  0  0  0  0  0  0  0  0  0
   16.3774   -2.5463    1.3646 C   0  0  0  0  0  0  0  0  0  0  0  0
   15.0030   -4.2766    0.8570 C   0  0  0  0  0  0  0  0  0  0  0  0
   13.8143   -5.1735    1.0379 C   0  0  0  0  0  0  0  0  0  0  0  0
   12.7904   -6.2571    0.8721 C   0  0  0  0  0  0  0  0  0  0  0  0
   12.0143   -7.4397    0.3730 C   0  0  0  0  0  0  0  0  0  0  0  0
   10.9230   -7.4284    1.4020 C   0  0  0  0  0  0  0  0  0  0  0  0
   11.5489   -8.6255   -0.4189 C   0  0  0  0  0  3  0  0  0  0  0  0
   11.4318   -9.7184   -1.4396 C   0  0  0  0  0  0  0  0  0  0  0  0
   11.6726  -10.6300   -2.6063 C   0  0  0  0  0  0  0  0  0  0  0  0
   12.2517  -11.2863   -3.8244 C   0  0  0  0  0  0  0  0  0  0  0  0
   11.2279  -12.3699   -3.9903 C   0  0  0  0  0  0  0  0  0  0  0  0
   13.1222  -11.6341   -4.9954 C   0  0  0  0  0  0  0  0  0  0  0  0
   14.2136  -11.6454   -6.0243 C   0  0  0  0  0  0  0  0  0  0  0  0
   15.4375  -11.3191   -6.8278 C   0  0  0  0  0  0  0  0  0  0  0  0
   15.3204  -12.4121   -7.8485 C   0  0  0  0  0  0  0  0  0  0  0  0
   16.6947  -10.6818   -7.3409 C   0  0  0  0  0  0  0  0  0  0  0  0
   17.8834   -9.7849   -7.5218 C   0  0  0  0  0  0  0  0  0  0  0  0
   18.4625  -10.4412   -8.7400 C   0  0  0  0  0  0  0  0  0  0  0  0
   18.9073   -8.7013   -7.3560 C   0  0  0  0  0  0  0  0  0  0  0  0
   19.6834   -7.5187   -6.8570 C   0  0  0  0  0  0  0  0  0  0  0  0
   20.1488   -6.3329   -6.0650 C   0  0  0  0  0  0  0  0  0  0  0  0
   21.3727   -6.0066   -6.8685 C   0  0  0  0  0  0  0  0  0  0  0  0
   20.2659   -5.2400   -5.0444 O   0  0  0  0  0  0  0  0  0  0  0  0
   20.0251   -4.3284   -3.8777 C   0  0  0  0  0  0  0  0  0  0  0  0
   19.4461   -3.6721   -2.6595 C   0  0  0  0  0  0  0  0  0  0  0  0
   18.5755   -3.3243   -1.4885 C   0  0  0  0  0  0  0  0  0  0  0  0
   19.3516   -2.1416   -0.9894 C   0  0  0  0  0  0  0  0  0  0  0  0
   20.7356   -2.3295   -0.4423 C   0  0  0  0  0  0  0  0  0  0  0  0
   21.3790   -3.6841   -0.4788 C   0  0  0  0  0  0  0  0  0  0  0  0
   21.0774   -4.6275   -1.6055 C   0  0  0  0  0  0  0  0  0  0  0  0
   19.8252   -5.4527   -1.5777 C   0  0  0  0  0  0  0  0  0  0  0  0
   18.4988   -4.7953   -1.3360 C   0  0  0  0  0  0  0  0  0  0  0  0
   19.8994   -6.9356   -1.7916 C   0  0  0  0  0  0  0  0  0  0  0  0
   18.5332   -7.0904   -1.1918 C   0  0  0  0  0  0  0  0  0  0  0  0
   21.2655   -6.7808   -2.3914 C   0  0  0  0  0  0  0  0  0  0  0  0
   19.9735   -8.4184   -2.0055 C   0  0  0  0  0  0  0  0  0  0  0  0
   19.9476   -8.9777   -3.3971 C   0  0  0  0  0  0  0  0  0  0  0  0
   19.5128   -8.1146   -4.5443 C   0  0  0  0  0  0  0  0  0  0  0  0
   18.0686   -7.7383   -4.6944 C   0  0  0  0  0  0  0  0  0  0  0  0
   17.1933   -8.4902   -5.6527 C   0  0  0  0  0  0  0  0  0  0  0  0
   17.4997   -6.6099   -3.8862 C   0  0  0  0  0  0  0  0  0  0  0  0
   16.1087   -6.1191   -4.1586 C   0  0  0  0  0  0  0  0  0  0  0  0
   15.6460   -4.8159   -3.5775 C   0  0  0  0  0  0  0  0  0  0  0  0
   14.8347   -5.5587   -2.5576 C   0  0  0  0  0  0  0  0  0  0  0  0
   16.4572   -4.0730   -4.5974 C   0  0  0  0  0  0  0  0  0  0  0  0
   15.1833   -3.5127   -2.9964 C   0  0  0  0  0  0  0  0  0  0  0  0
   15.3138   -2.2481   -3.7925 C   0  0  0  0  0  0  0  0  0  0  0  0
   15.7423   -0.9784   -3.1184 C   0  0  0  0  0  0  0  0  0  0  0  0
   16.0142   -0.9673   -1.6434 C   0  0  0  0  0  0  0  0  0  0  0  0
   15.1496   -0.1526   -0.7275 C   0  0  0  0  0  0  0  0  0  0  0  0
   15.2458    1.3443   -0.7399 C   0  0  0  0  0  0  0  0  0  0  0  0
   14.1889   -0.8347    0.2008 C   0  0  0  0  0  3  0  0  0  0  0  0
   14.3756   -0.7269    1.6852 C   0  0  0  0  0  0  0  0  0  0  0  0
   14.5628   -1.9660    2.5095 C   0  0  0  0  0  0  0  0  0  0  0  0
   14.0229   -2.0253    3.9077 C   0  0  0  0  0  2  0  0  0  0  0  0
   14.3304   -0.9232    4.8777 C   0  0  0  0  0  0  0  0  0  0  0  0
   14.8712   -1.2507    6.2381 C   0  0  0  0  0  0  0  0  0  0  0  0
   14.6995   -0.2784    7.3673 C   0  0  0  0  0  0  0  0  0  0  0  0
   15.2226    1.1214    7.2378 C   0  0  0  0  0  0  0  0  0  0  0  0
   14.3171    2.2879    7.5010 C   0  0  0  0  0  0  0  0  0  0  0  0
   14.8525    3.6866    7.4186 C   0  0  0  0  0  0  0  0  0  0  0  0
   12.8760    2.0556    7.8465 C   0  0  0  0  0  3  0  0  0  0  0  0
   12.2564    0.7095    7.6137 C   0  0  0  0  0  0  0  0  0  0  0  0
   11.0134    0.3174    8.3560 C   0  0  0  0  0  0  0  0  0  0  0  0
    9.8649   -0.3056    7.6193 C   0  0  0  0  0  0  0  0  0  0  0  0
    9.3723   -1.6671    8.0114 C   0  0  0  0  0  0  0  0  0  0  0  0
    8.1929   -1.8026    8.9282 C   0  0  0  0  0  0  0  0  0  0  0  0
    7.7652   -3.1592    9.4044 C   0  0  0  0  0  0  0  0  0  0  0  0
    8.7233   -4.0213   10.1717 C   0  0  0  0  0  0  0  0  0  0  0  0
    9.6703   -4.9254    9.4398 C   0  0  0  0  0  0  0  0  0  0  0  0
   10.9494   -4.3768    8.8803 C   0  0  0  0  0  0  0  0  0  0  0  0
   11.8176   -5.2372    8.0109 C   0  0  0  0  0  0  0  0  0  0  0  0
   11.7246   -6.7315    8.1028 C   0  0  0  0  0  0  0  0  0  0  0  0
   12.4801   -7.4658    9.1707 C   0  0  0  0  0  0  0  0  0  0  0  0
   12.7941   -8.9226    9.0004 C   0  0  0  0  0  0  0  0  0  0  0  0
   12.4680   -9.8932   10.0967 C   0  0  0  0  0  0  0  0  0  0  0  0
   11.1102   -9.8765   10.7337 C   0  0  0  0  0  0  0  0  0  0  0  0
   10.3341  -11.1519   10.8788 C   0  0  0  0  0  0  0  0  0  0  0  0
    9.0949  -11.3728   10.0630 C   0  0  0  0  0  0  0  0  0  0  0  0
    9.0393  -10.9006    8.6403 S   0  0  0  0  0  0  0  0  0  0  0  0
    7.8001  -11.1214    7.8246 C   0  0  0  0  0  0  0  0  0  0  0  0
    6.8995   -9.9664    7.5010 C   0  0  0  0  0  0  0  0  0  0  0  0
    6.4242   -9.0566    8.5948 C   0  0  0  0  0  3  0  0  0  0  0  0
    5.5236   -7.9016    8.2712 C   0  0  0  0  0  0  0  0  0  0  0  0
  1  2  1  0
  2  3  1  0
  2  4  1  0
  4  5  1  0
  5  6  1  0
  6  7  1  0
  7  8  1  0
  7  9  1  0
  9 10  1  0
 10 11  1  0
 11 12  1  0
 12 13  1  0
 12 14  1  0
 14 15  1  0
 15 16  1  0
 16 17  1  0
 16 18  1  0
 18 19  1  0
 19 20  1  0
 19 21  1  0
 21 22  1  0
 22 23  1  0
 23 24  1  0
 23 25  1  0
 25 26  1  0
 26 27  1  0
 27 28  1  0
 28 29  1  0
 29 30  1  0
 30 31  1  0
 31 32  1  0
 32 33  1  0
 33 34  1  0
 33 35  1  0
 35 36  1  0
 35 37  1  0
 35 38  1  0
 38 39  1  0
 39 40  1  0
 40 41  1  0
 41 42  1  0
 41 43  1  0
 43 44  1  0
 44 45  1  0
 45 46  1  0
 45 47  1  0
 45 48  1  0
 48 49  1  0
 49 50  1  0
 50 51  1  0
 51 52  1  0
 52 53  1  0
 52 54  1  0
 54 55  1  0
 55 56  1  0
 56 57  1  0
 57 58  1  0
 58 59  1  0
 59 60  1  0
 60 61  1  0
 61 62  1  0
 62 63  1  0
 62 64  1  0
 64 65  1  0
 65 66  1  0
 66 67  1  0
 67 68  1  0
 68 69  1  0
 69 70  1  0
 70 71  1  0
 71 72  1  0
 72 73  1  0
 73 74  1  0
 74 75  1  0
 75 76  1  0
 76 77  1  0
 77 78  1  0
 78 79  1  0
 79 80  1  0
 80 81  1  0
 81 82  2  3
 82 83  1  0
 83 84  1  0
 84 85  2  3
 85 86  1  0
 28  1  1  0
M  RAD  5   9   2  54   2  57   3  64   2  85   2
M  END
>  <docking_score>  (1) 
106.489

$$$$
