
     RDKit          3D

 17 18  0  0  0  0  0  0  0  0999 V2000
   14.8868   -7.1691   -4.8460 C   0  0  0  0  0  0  0  0  0  0  0  0
   15.6407   -6.4180   -5.8939 C   0  0  1  0  0  0  0  0  0  0  0  0
   14.7770   -5.5455   -6.7413 C   0  0  0  0  0  0  0  0  0  0  0  0
   14.2091   -4.3577   -5.9530 C   0  0  1  0  0  0  0  0  0  0  0  0
   12.9790   -4.6266   -5.4233 O   0  0  0  0  0  0  0  0  0  0  0  0
   15.2533   -3.9538   -4.9648 C   0  0  2  0  0  0  0  0  0  0  0  0
   15.0784   -2.7470   -4.3759 O   0  0  0  0  0  0  0  0  0  0  0  0
   16.5826   -4.2095   -5.5757 C   0  0  1  0  0  0  0  0  0  0  0  0
   17.5977   -3.4025   -5.1951 O   0  0  0  0  0  0  0  0  0  0  0  0
   16.8593   -5.6979   -5.3429 C   0  0  1  0  0  0  0  0  0  0  0  0
   16.7947   -5.8621   -3.8819 N   0  0  0  0  0  0  0  0  0  0  0  0
   18.0174   -5.4955   -3.2435 C   0  0  0  0  0  3  0  0  0  0  0  0
   17.9402   -4.2793   -2.3848 C   0  0  0  0  0  0  0  0  0  0  0  0
   16.5347   -3.7892   -2.1481 C   0  0  0  0  0  3  0  0  0  0  0  0
   16.3032   -3.7389   -0.7577 O   0  0  0  0  0  0  0  0  0  0  0  0
   16.4574   -2.3570   -2.6369 C   0  0  0  0  0  3  0  0  0  0  0  0
   16.2057   -2.2427   -3.9743 O   0  0  0  0  0  0  0  0  0  0  0  0
  2  1  1  1
  2  3  1  0
  3  4  1  0
  4  5  1  1
  4  6  1  0
  6  7  1  6
  6  8  1  0
  8  9  1  1
  8 10  1  0
 10 11  1  1
 11 12  1  0
 12 13  1  0
 13 14  1  0
 14 15  1  0
 14 16  1  0
 16 17  1  0
 10  2  1  0
 17  7  1  0
M  RAD  3  12   2  14   2  16   2
M  END
>  <docking_score>  (1) 
-5.0119999999999996

$$$$

     RDKit          3D

 17 18  0  0  0  0  0  0  0  0999 V2000
   16.7823   -1.8912   -6.6382 C   0  0  0  0  0  0  0  0  0  0  0  0
   15.9755   -1.5273   -5.4350 C   0  0  1  0  0  0  0  0  0  0  0  0
   14.6182   -2.1459   -5.4165 C   0  0  0  0  0  0  0  0  0  0  0  0
   14.6810   -3.6660   -5.2157 C   0  0  1  0  0  0  0  0  0  0  0  0
   14.6956   -4.3460   -6.4003 O   0  0  0  0  0  0  0  0  0  0  0  0
   15.8385   -3.9368   -4.3119 C   0  0  2  0  0  0  0  0  0  0  0  0
   15.8917   -5.1768   -3.7704 O   0  0  0  0  0  0  0  0  0  0  0  0
   15.9595   -2.7942   -3.3709 C   0  0  1  0  0  0  0  0  0  0  0  0
   16.4622   -3.0602   -2.1449 O   0  0  0  0  0  0  0  0  0  0  0  0
   16.7364   -1.7172   -4.1342 C   0  0  1  0  0  0  0  0  0  0  0  0
   18.0042   -2.3671   -4.5031 N   0  0  0  0  0  0  0  0  0  0  0  0
   18.9508   -2.3476   -3.4352 C   0  0  0  0  0  3  0  0  0  0  0  0
   19.2721   -3.6820   -2.8533 C   0  0  0  0  0  0  0  0  0  0  0  0
   18.7275   -4.8405   -3.6490 C   0  0  0  0  0  3  0  0  0  0  0  0
   19.7981   -5.6894   -3.9991 O   0  0  0  0  0  0  0  0  0  0  0  0
   17.8344   -5.6507   -2.7315 C   0  0  0  0  0  3  0  0  0  0  0  0
   16.5536   -5.1830   -2.6532 O   0  0  0  0  0  0  0  0  0  0  0  0
  2  1  1  6
  2  3  1  0
  3  4  1  0
  4  5  1  6
  4  6  1  0
  6  7  1  1
  6  8  1  0
  8  9  1  1
  8 10  1  0
 10 11  1  6
 11 12  1  0
 12 13  1  0
 13 14  1  0
 14 15  1  0
 14 16  1  0
 16 17  1  0
 10  2  1  0
 17  7  1  0
M  RAD  3  12   2  14   2  16   2
M  END
>  <docking_score>  (2) 
-4.9900000000000002

$$$$

     RDKit          3D

 17 18  0  0  0  0  0  0  0  0999 V2000
   16.4843   -1.3893   -5.6526 C   0  0  0  0  0  0  0  0  0  0  0  0
   15.5500   -1.7771   -4.5537 C   0  0  1  0  0  0  0  0  0  0  0  0
   14.6541   -2.9167   -4.9057 C   0  0  0  0  0  0  0  0  0  0  0  0
   15.4269   -4.2353   -5.0435 C   0  0  1  0  0  0  0  0  0  0  0  0
   15.8165   -4.4767   -6.3303 O   0  0  0  0  0  0  0  0  0  0  0  0
   16.5323   -4.1972   -4.0401 C   0  0  2  0  0  0  0  0  0  0  0  0
   17.1480   -5.3770   -3.7899 O   0  0  0  0  0  0  0  0  0  0  0  0
   16.0512   -3.4344   -2.8603 C   0  0  1  0  0  0  0  0  0  0  0  0
   16.5657   -3.7758   -1.6580 O   0  0  0  0  0  0  0  0  0  0  0  0
   16.2514   -1.9587   -3.2187 C   0  0  1  0  0  0  0  0  0  0  0  0
   17.6904   -1.8391   -3.5030 N   0  0  0  0  0  0  0  0  0  0  0  0
   18.4649   -1.6948   -2.3129 C   0  0  0  0  0  3  0  0  0  0  0  0
   19.3590   -2.8457   -1.9993 C   0  0  0  0  0  0  0  0  0  0  0  0
   19.4698   -3.8525   -3.1155 C   0  0  0  0  0  3  0  0  0  0  0  0
   20.8301   -3.9956   -3.4599 O   0  0  0  0  0  0  0  0  0  0  0  0
   19.0334   -5.1967   -2.5689 C   0  0  0  0  0  3  0  0  0  0  0  0
   17.6828   -5.3961   -2.6066 O   0  0  0  0  0  0  0  0  0  0  0  0
  2  1  1  6
  2  3  1  0
  3  4  1  0
  4  5  1  6
  4  6  1  0
  6  7  1  1
  6  8  1  0
  8  9  1  1
  8 10  1  0
 10 11  1  6
 11 12  1  0
 12 13  1  0
 13 14  1  0
 14 15  1  0
 14 16  1  0
 16 17  1  0
 10  2  1  0
 17  7  1  0
M  RAD  3  12   2  14   2  16   2
M  END
>  <docking_score>  (3) 
-4.9589999999999996

$$$$
