
     RDKit          3D

 32 33  0  0  0  0  0  0  0  0999 V2000
   15.6317   -4.8945   -7.7974 C   0  0  0  0  0  0  0  0  0  0  0  0
   14.4399   -5.6890   -7.2726 C   0  0  0  0  0  0  0  0  0  0  0  0
   13.1884   -5.3202   -8.0420 C   0  0  0  0  0  0  0  0  0  0  0  0
   14.2047   -5.2829   -5.8199 C   0  0  0  0  0  0  0  0  0  0  0  0
   14.4933   -3.8100   -5.7013 C   0  0  0  0  0  0  0  0  0  0  0  0
   15.2848   -3.4617   -4.4809 C   0  0  0  0  0  0  0  0  0  0  0  0
   15.5065   -1.9773   -4.4453 C   0  0  1  0  0  0  0  0  0  0  0  0
   14.1928   -1.2311   -4.5187 C   0  0  0  0  0  0  0  0  0  0  0  0
   16.2622   -1.5823   -3.2045 C   0  0  0  0  0  3  0  0  0  0  0  0
   17.5252   -2.4061   -3.0431 C   0  0  0  0  0  0  0  0  0  0  0  0
   18.7499   -1.6585   -3.4570 C   0  0  0  0  0  0  0  0  0  0  0  0
   19.4634   -2.3483   -4.6002 C   0  0  2  0  0  0  0  0  0  0  0  0
   18.5371   -2.4129   -5.7696 C   0  0  0  0  0  3  0  0  0  0  0  0
   18.5279   -1.1261   -6.5805 C   0  0  0  0  0  0  0  0  0  0  0  0
   18.8050   -3.5400   -6.7123 C   0  0  0  0  0  0  0  0  0  0  0  0
   20.0437   -3.2518   -7.5337 C   0  0  1  0  0  0  0  0  0  0  0  0
   21.1946   -2.7729   -6.6940 C   0  0  0  0  0  0  0  0  0  0  0  0
   20.5126   -4.5081   -8.2654 C   0  0  0  0  0  0  0  0  0  0  0  0
   19.3600   -5.4881   -8.2214 C   0  0  0  0  0  0  0  0  0  0  0  0
   19.8481   -6.8093   -8.7400 C   0  0  0  0  0  0  0  0  0  0  0  0
   19.4973   -7.9195   -7.7728 C   0  0  0  0  0  0  0  0  0  0  0  0
   20.6396   -8.2178   -6.8154 C   0  0  0  0  0  0  0  0  0  0  0  0
   20.1099   -8.3632   -5.5410 O   0  0  0  0  0  0  0  0  0  0  0  0
   21.0820   -8.3071   -4.5500 C   0  0  0  0  0  0  0  0  0  0  0  0
   20.5597   -7.5606   -3.3161 C   0  0  0  0  0  0  0  0  0  0  0  0
   20.4848   -6.1007   -3.7175 C   0  0  1  0  0  0  0  0  0  0  0  0
   19.5467   -6.0206   -4.7479 O   0  0  0  0  0  0  0  0  0  0  0  0
   18.3136   -6.3356   -4.2003 C   0  0  0  0  0  0  0  0  0  0  0  0
   18.3671   -5.9547   -2.7442 C   0  0  0  0  0  0  0  0  0  0  0  0
   19.7558   -5.3608   -2.6138 C   0  0  2  0  0  0  0  0  0  0  0  0
   19.6377   -3.8875   -2.8920 C   0  0  0  0  0  0  0  0  0  0  0  0
   19.9729   -3.5597   -4.2014 O   0  0  0  0  0  0  0  0  0  0  0  0
  1  2  1  0
  2  3  1  0
  2  4  1  0
  4  5  1  0
  5  6  1  0
  6  7  1  0
  7  8  1  1
  7  9  1  0
  9 10  1  0
 10 11  1  0
 12 11  1  1
 12 13  1  0
 13 14  1  0
 13 15  1  0
 15 16  1  0
 16 17  1  1
 16 18  1  0
 18 19  1  0
 19 20  1  0
 20 21  1  0
 21 22  1  0
 22 23  1  0
 23 24  1  0
 24 25  1  0
 26 25  1  1
 26 27  1  0
 27 28  1  0
 28 29  1  0
 30 29  1  6
 30 31  1  0
 31 32  1  0
 32 12  1  0
 30 26  1  0
M  RAD  2   9   2  13   2
M  END
>  <docking_score>  (1) 
-4.194

$$$$

     RDKit          3D

 32 33  0  0  0  0  0  0  0  0999 V2000
   17.3480   -9.6194   -5.2368 C   0  0  0  0  0  0  0  0  0  0  0  0
   17.3516   -8.8989   -6.5814 C   0  0  0  0  0  0  0  0  0  0  0  0
   18.1586   -9.6868   -7.5924 C   0  0  0  0  0  0  0  0  0  0  0  0
   18.0578   -7.5581   -6.3964 C   0  0  0  0  0  0  0  0  0  0  0  0
   18.5398   -7.4844   -4.9720 C   0  0  0  0  0  0  0  0  0  0  0  0
   20.0298   -7.4216   -4.8573 C   0  0  0  0  0  0  0  0  0  0  0  0
   20.3971   -6.8987   -3.4989 C   0  0  1  0  0  0  0  0  0  0  0  0
   21.3789   -7.8208   -2.8104 C   0  0  0  0  0  0  0  0  0  0  0  0
   20.9693   -5.5099   -3.6008 C   0  0  0  0  0  3  0  0  0  0  0  0
   20.8390   -4.7627   -2.2875 C   0  0  0  0  0  0  0  0  0  0  0  0
   20.7806   -3.2827   -2.4774 C   0  0  0  0  0  0  0  0  0  0  0  0
   19.3898   -2.8250   -2.8619 C   0  0  2  0  0  0  0  0  0  0  0  0
   18.4164   -3.8930   -2.4854 C   0  0  0  0  0  3  0  0  0  0  0  0
   18.0104   -3.8248   -1.0211 C   0  0  0  0  0  0  0  0  0  0  0  0
   17.1656   -3.9087   -3.3015 C   0  0  0  0  0  0  0  0  0  0  0  0
   16.2670   -2.7571   -2.9040 C   0  0  1  0  0  0  0  0  0  0  0  0
   17.0076   -1.4525   -2.8107 C   0  0  0  0  0  0  0  0  0  0  0  0
   15.1469   -2.5667   -3.9251 C   0  0  0  0  0  0  0  0  0  0  0  0
   15.1026   -3.8303   -4.7570 C   0  0  0  0  0  0  0  0  0  0  0  0
   14.1629   -3.6031   -5.9051 C   0  0  0  0  0  0  0  0  0  0  0  0
   14.8248   -3.9799   -7.2131 C   0  0  0  0  0  0  0  0  0  0  0  0
   15.4610   -2.7780   -7.8922 C   0  0  0  0  0  0  0  0  0  0  0  0
   16.7125   -3.1556   -8.3578 O   0  0  0  0  0  0  0  0  0  0  0  0
   17.5073   -2.0667   -8.6938 C   0  0  0  0  0  0  0  0  0  0  0  0
   18.9686   -2.3170   -8.3009 C   0  0  0  0  0  0  0  0  0  0  0  0
   19.0092   -2.2367   -6.7876 C   0  0  1  0  0  0  0  0  0  0  0  0
   18.2097   -3.2781   -6.3139 O   0  0  0  0  0  0  0  0  0  0  0  0
   18.8409   -4.4630   -6.6561 C   0  0  0  0  0  0  0  0  0  0  0  0
   20.3164   -4.1710   -6.7327 C   0  0  0  0  0  0  0  0  0  0  0  0
   20.3793   -2.7074   -6.3423 C   0  0  2  0  0  0  0  0  0  0  0  0
   20.5473   -2.6520   -4.8488 C   0  0  0  0  0  0  0  0  0  0  0  0
   19.3453   -2.4441   -4.1806 O   0  0  0  0  0  0  0  0  0  0  0  0
  1  2  1  0
  2  3  1  0
  2  4  1  0
  4  5  1  0
  5  6  1  0
  6  7  1  0
  7  8  1  6
  7  9  1  0
  9 10  1  0
 10 11  1  0
 12 11  1  6
 12 13  1  0
 13 14  1  0
 13 15  1  0
 15 16  1  0
 16 17  1  6
 16 18  1  0
 18 19  1  0
 19 20  1  0
 20 21  1  0
 21 22  1  0
 22 23  1  0
 23 24  1  0
 24 25  1  0
 26 25  1  6
 26 27  1  0
 27 28  1  0
 28 29  1  0
 30 29  1  1
 30 31  1  0
 31 32  1  0
 32 12  1  0
 30 26  1  0
M  RAD  2   9   2  13   2
M  END
>  <docking_score>  (2) 
-3.472

$$$$

     RDKit          3D

 32 33  0  0  0  0  0  0  0  0999 V2000
    3.9348   13.1697    2.9633 C   0  0  0  0  0  0  0  0  0  0  0  0
    5.1649   13.4255    3.8284 C   0  0  0  0  0  0  0  0  0  0  0  0
    6.3084   13.9290    2.9722 C   0  0  0  0  0  0  0  0  0  0  0  0
    5.6089   12.0916    4.4237 C   0  0  0  0  0  0  0  0  0  0  0  0
    5.0598   12.0066    5.8230 C   0  0  0  0  0  0  0  0  0  0  0  0
    5.2052   10.6476    6.4307 C   0  0  0  0  0  0  0  0  0  0  0  0
    3.8899   10.2295    7.0213 C   0  0  1  0  0  0  0  0  0  0  0  0
    3.9422    8.7955    7.5002 C   0  0  0  0  0  0  0  0  0  0  0  0
    3.5006   11.1434    8.1526 C   0  0  0  0  0  3  0  0  0  0  0  0
    4.3960   10.9385    9.3593 C   0  0  0  0  0  0  0  0  0  0  0  0
    4.7162   12.2202   10.0554 C   0  0  0  0  0  0  0  0  0  0  0  0
    4.7672   12.0403   11.5577 C   0  0  2  0  0  0  0  0  0  0  0  0
    3.5208   12.6129   12.1480 C   0  0  0  0  0  3  0  0  0  0  0  0
    2.3492   11.6444   12.0937 C   0  0  0  0  0  0  0  0  0  0  0  0
    3.6594   13.0766   13.5610 C   0  0  0  0  0  0  0  0  0  0  0  0
    3.7224   11.8889   14.4977 C   0  0  1  0  0  0  0  0  0  0  0  0
    4.6818   10.8323   14.0264 C   0  0  0  0  0  0  0  0  0  0  0  0
    4.1775   12.3211   15.8904 C   0  0  0  0  0  0  0  0  0  0  0  0
    4.0286   13.8263   15.9448 C   0  0  0  0  0  0  0  0  0  0  0  0
    4.6621   14.3144   17.2149 C   0  0  0  0  0  0  0  0  0  0  0  0
    5.6308   15.4405   16.9241 C   0  0  0  0  0  0  0  0  0  0  0  0
    7.0555   14.9347   16.7661 C   0  0  0  0  0  0  0  0  0  0  0  0
    7.6208   15.5678   15.6682 O   0  0  0  0  0  0  0  0  0  0  0  0
    8.7860   14.9468   15.2361 C   0  0  0  0  0  0  0  0  0  0  0  0
    8.8754   14.9610   13.7050 C   0  0  0  0  0  0  0  0  0  0  0  0
    7.8347   13.9705   13.2212 C   0  0  1  0  0  0  0  0  0  0  0  0
    6.5951   14.4694   13.6247 O   0  0  0  0  0  0  0  0  0  0  0  0
    6.3768   15.6387   12.9145 C   0  0  0  0  0  0  0  0  0  0  0  0
    7.1303   15.5138   11.6164 C   0  0  0  0  0  0  0  0  0  0  0  0
    7.7243   14.1227   11.7173 C   0  0  2  0  0  0  0  0  0  0  0  0
    6.7289   13.1690   11.1159 C   0  0  0  0  0  0  0  0  0  0  0  0
    5.9345   12.5474   12.0736 O   0  0  0  0  0  0  0  0  0  0  0  0
  1  2  1  0
  2  3  1  0
  2  4  1  0
  4  5  1  0
  5  6  1  0
  6  7  1  0
  7  8  1  1
  7  9  1  0
  9 10  1  0
 10 11  1  0
 12 11  1  6
 12 13  1  0
 13 14  1  0
 13 15  1  0
 15 16  1  0
 16 17  1  6
 16 18  1  0
 18 19  1  0
 19 20  1  0
 20 21  1  0
 21 22  1  0
 22 23  1  0
 23 24  1  0
 24 25  1  0
 26 25  1  1
 26 27  1  0
 27 28  1  0
 28 29  1  0
 30 29  1  1
 30 31  1  0
 31 32  1  0
 32 12  1  0
 30 26  1  0
M  RAD  2   9   2  13   2
M  END
>  <docking_score>  (3) 
-3.2589999999999999

$$$$
