
     RDKit          3D

 25 28  0  0  0  0  0  0  0  0999 V2000
   18.8983   -7.7444   -6.6672 C   0  0  0  0  0  0  0  0  0  0  0  0
   17.8296   -7.1717   -5.7840 O   0  0  0  0  0  0  0  0  0  0  0  0
   17.3956   -4.1995   -4.1571 C   0  0  0  0  0  0  0  0  0  0  0  0
   17.5049   -4.3462   -4.1780 C   0  0  0  0  0  0  0  0  0  0  0  0
   16.7264   -3.3818   -4.0809 C   0  0  0  0  0  0  0  0  0  0  0  0
   16.9248   -3.5816   -4.0759 C   0  0  0  0  0  0  0  0  0  0  0  0
   13.8587   -2.1902   -5.2487 N   0  0  0  0  0  0  0  0  0  0  0  0
   16.1378   -2.6101   -3.9801 C   0  0  0  0  0  0  0  0  0  0  0  0
   17.2354   -2.2671   -3.0169 C   0  0  0  0  0  0  0  0  0  0  0  0
   16.0761   -1.3256   -3.1919 C   0  0  0  0  0  0  0  0  0  0  0  0
   14.9289   -1.5722   -4.1264 C   0  0  0  0  0  0  0  0  0  0  0  0
   13.8174   -0.5703   -4.2301 Br  0  0  0  0  0  0  0  0  0  0  0  0
   14.8933   -2.8207   -4.9570 C   0  0  0  0  0  0  0  0  0  0  0  0
   16.0049   -3.8226   -4.8532 C   0  0  0  0  0  0  0  0  0  0  0  0
   16.9365   -4.9913   -4.9788 C   0  0  0  0  0  0  0  0  0  0  0  0
   16.2315   -5.8344   -5.9998 Br  0  0  0  0  0  0  0  0  0  0  0  0
   18.2313   -5.2365   -4.2623 C   0  0  0  0  0  0  0  0  0  0  0  0
   18.9142   -4.3732   -3.2432 C   0  0  0  0  0  0  0  0  0  0  0  0
   18.4710   -3.0519   -2.6890 C   0  0  0  0  0  0  0  0  0  0  0  0
   19.1539   -2.1886   -1.6699 C   0  0  0  0  0  0  0  0  0  0  0  0
   20.4488   -2.4337   -0.9534 C   0  0  0  0  0  0  0  0  0  0  0  0
   21.3804   -3.6025   -1.0790 C   0  0  0  0  0  0  0  0  0  0  0  0
   21.2474   -4.8150   -1.9521 C   0  0  0  0  0  0  0  0  0  0  0  0
   20.1498   -5.1580   -2.9153 C   0  0  0  0  0  0  0  0  0  0  0  0
   20.3089   -6.4575   -3.6473 Cl  0  0  0  0  0  0  0  0  0  0  0  0
  1  2  1  0
  2  3  1  0
  3  4  2  3
  4  5  1  0
  5  6  2  3
  6  7  1  0
  6  8  1  0
  8  9  2  0
  9 10  1  0
 10 11  2  0
 11 12  1  0
 11 13  1  0
 13 14  2  0
 14 15  1  0
 15 16  1  0
 15 17  2  0
 17 18  1  0
 18 19  2  0
 19 20  1  0
 20 21  1  0
 21 22  1  0
 22 23  1  0
 23 24  2  0
 24 25  1  0
 17  3  1  0
 14  8  1  0
 19  9  1  0
 24 18  1  0
M  END
>  <docking_score>  (1) 
-6.6550000000000002

$$$$

     RDKit          3D

 25 28  0  0  0  0  0  0  0  0999 V2000
   13.3230   -3.8543   -5.6518 C   0  0  0  0  0  0  0  0  0  0  0  0
   14.3426   -3.1550   -4.8024 O   0  0  0  0  0  0  0  0  0  0  0  0
   17.4402   -3.9654   -3.6117 C   0  0  0  0  0  0  0  0  0  0  0  0
   17.2938   -4.0251   -3.7059 C   0  0  0  0  0  0  0  0  0  0  0  0
   18.2523   -3.5643   -3.0624 C   0  0  0  0  0  0  0  0  0  0  0  0
   18.0565   -3.7020   -3.2107 C   0  0  0  0  0  0  0  0  0  0  0  0
   19.2979   -0.8316   -1.4982 N   0  0  0  0  0  0  0  0  0  0  0  0
   19.0219   -3.2345   -2.5612 C   0  0  0  0  0  0  0  0  0  0  0  0
   19.4630   -4.6307   -2.8868 C   0  0  0  0  0  0  0  0  0  0  0  0
   20.3698   -3.7276   -2.0974 C   0  0  0  0  0  0  0  0  0  0  0  0
   20.0266   -2.3173   -1.7188 C   0  0  0  0  0  0  0  0  0  0  0  0
   21.0003   -1.4949   -0.9281 Br  0  0  0  0  0  0  0  0  0  0  0  0
   18.7095   -1.7296   -2.1311 C   0  0  0  0  0  0  0  0  0  0  0  0
   17.7357   -2.5520   -2.9219 C   0  0  0  0  0  0  0  0  0  0  0  0
   16.5731   -3.0971   -3.6971 C   0  0  0  0  0  0  0  0  0  0  0  0
   15.6342   -1.9273   -3.7007 Br  0  0  0  0  0  0  0  0  0  0  0  0
   16.4093   -4.4594   -4.3032 C   0  0  0  0  0  0  0  0  0  0  0  0
   17.3680   -5.6130   -4.2838 C   0  0  0  0  0  0  0  0  0  0  0  0
   18.7269   -5.6892   -3.6535 C   0  0  0  0  0  0  0  0  0  0  0  0
   19.6855   -6.8428   -3.6340 C   0  0  0  0  0  0  0  0  0  0  0  0
   19.5218   -8.2052   -4.2402 C   0  0  0  0  0  0  0  0  0  0  0  0
   18.3591   -8.7502   -5.0154 C   0  0  0  0  0  0  0  0  0  0  0  0
   17.0730   -8.0677   -5.3760 C   0  0  0  0  0  0  0  0  0  0  0  0
   16.6318   -6.6715   -5.0504 C   0  0  0  0  0  0  0  0  0  0  0  0
   15.2753   -6.2824   -5.5586 Cl  0  0  0  0  0  0  0  0  0  0  0  0
  1  2  1  0
  2  3  1  0
  3  4  2  3
  4  5  1  0
  5  6  2  3
  6  7  1  0
  6  8  1  0
  8  9  2  0
  9 10  1  0
 10 11  2  0
 11 12  1  0
 11 13  1  0
 13 14  2  0
 14 15  1  0
 15 16  1  0
 15 17  2  0
 17 18  1  0
 18 19  2  0
 19 20  1  0
 20 21  1  0
 21 22  1  0
 22 23  1  0
 23 24  2  0
 24 25  1  0
 17  3  1  0
 14  8  1  0
 19  9  1  0
 24 18  1  0
M  END
>  <docking_score>  (2) 
-6.6299999999999999

$$$$

     RDKit          3D

 25 28  0  0  0  0  0  0  0  0999 V2000
    3.8848   12.7705    9.5016 C   0  0  0  0  0  0  0  0  0  0  0  0
    4.4714   11.4327    9.1605 O   0  0  0  0  0  0  0  0  0  0  0  0
    4.6903    9.5624    6.3103 C   0  0  0  0  0  0  0  0  0  0  0  0
    4.7294    9.7244    6.3886 C   0  0  0  0  0  0  0  0  0  0  0  0
    4.4383    8.6117    5.9167 C   0  0  0  0  0  0  0  0  0  0  0  0
    4.5197    8.8717    5.9881 C   0  0  0  0  0  0  0  0  0  0  0  0
    2.9961    5.7249    6.6876 N   0  0  0  0  0  0  0  0  0  0  0  0
    4.2248    7.7486    5.5148 C   0  0  0  0  0  0  0  0  0  0  0  0
    4.9019    8.4431    4.3707 C   0  0  0  0  0  0  0  0  0  0  0  0
    4.3909    7.0401    4.1936 C   0  0  0  0  0  0  0  0  0  0  0  0
    3.7007    6.2566    5.2706 C   0  0  0  0  0  0  0  0  0  0  0  0
    3.2263    4.8605    4.9955 Br  0  0  0  0  0  0  0  0  0  0  0  0
    3.4850    6.8694    6.6226 C   0  0  0  0  0  0  0  0  0  0  0  0
    3.9595    8.2656    6.8977 C   0  0  0  0  0  0  0  0  0  0  0  0
    4.3056    9.6048    7.4779 C   0  0  0  0  0  0  0  0  0  0  0  0
    3.7732    9.4783    8.8745 Br  0  0  0  0  0  0  0  0  0  0  0  0
    5.0026   10.7578    6.8186 C   0  0  0  0  0  0  0  0  0  0  0  0
    5.5257   10.8563    5.4162 C   0  0  0  0  0  0  0  0  0  0  0  0
    5.4808    9.8263    4.3268 C   0  0  0  0  0  0  0  0  0  0  0  0
    6.0039    9.9248    2.9244 C   0  0  0  0  0  0  0  0  0  0  0  0
    6.7009   11.0779    2.2650 C   0  0  0  0  0  0  0  0  0  0  0  0
    7.0470   12.4170    2.8453 C   0  0  0  0  0  0  0  0  0  0  0  0
    6.7817   12.9340    4.2281 C   0  0  0  0  0  0  0  0  0  0  0  0
    6.1046   12.2394    5.3723 C   0  0  0  0  0  0  0  0  0  0  0  0
    5.9915   13.0328    6.6402 Cl  0  0  0  0  0  0  0  0  0  0  0  0
  1  2  1  0
  2  3  1  0
  3  4  2  3
  4  5  1  0
  5  6  2  3
  6  7  1  0
  6  8  1  0
  8  9  2  0
  9 10  1  0
 10 11  2  0
 11 12  1  0
 11 13  1  0
 13 14  2  0
 14 15  1  0
 15 16  1  0
 15 17  2  0
 17 18  1  0
 18 19  2  0
 19 20  1  0
 20 21  1  0
 21 22  1  0
 22 23  1  0
 23 24  2  0
 24 25  1  0
 17  3  1  0
 14  8  1  0
 19  9  1  0
 24 18  1  0
M  END
>  <docking_score>  (3) 
-6.2480000000000002

$$$$
