
     RDKit          3D

 16 16  0  0  0  0  0  0  0  0999 V2000
   14.4898   -1.0658   -4.1391 C   0  0  0  0  0  0  0  0  0  0  0  0
   14.7600   -2.1460   -5.1481 C   0  0  1  0  0  0  0  0  0  0  0  0
   15.4073   -1.5676   -6.3664 C   0  0  0  0  0  0  0  0  0  0  0  0
   15.7586   -2.5919   -7.3956 C   0  0  2  0  0  0  0  0  0  0  0  0
   15.0844   -2.4295   -8.5981 O   0  0  0  0  0  0  0  0  0  0  0  0
   15.5696   -3.9709   -6.8027 C   0  0  2  0  0  0  0  0  0  0  0  0
   14.2242   -4.1994   -6.4918 O   0  0  0  0  0  0  0  0  0  0  0  0
   16.3597   -4.0122   -5.5106 C   0  0  1  0  0  0  0  0  0  0  0  0
   17.6454   -3.4736   -5.7357 O   0  0  0  0  0  0  0  0  0  0  0  0
   15.5925   -3.2078   -4.4949 C   0  0  1  0  0  0  0  0  0  0  0  0
   16.4230   -2.7091   -3.4231 N   0  0  0  0  0  0  0  0  0  0  0  0
   16.4939   -3.6437   -2.3371 C   0  0  0  0  0  3  0  0  0  0  0  0
   17.8514   -4.2881   -2.2100 C   0  0  0  0  0  0  0  0  0  0  0  0
   17.8056   -5.6574   -2.5325 O   0  0  0  0  0  0  0  0  0  0  0  0
   18.7039   -6.1676   -3.4486 C   0  0  0  0  0  0  0  0  0  0  0  0
   19.9292   -5.9994   -3.2350 O   0  0  0  0  0  0  0  0  0  0  0  0
  2  1  1  1
  2  3  1  0
  3  4  1  0
  4  5  1  6
  4  6  1  0
  6  7  1  1
  6  8  1  0
  8  9  1  6
  8 10  1  0
 10 11  1  1
 11 12  1  0
 12 13  1  0
 13 14  1  0
 14 15  1  0
 15 16  2  0
 10  2  1  0
M  RAD  1  12   2
M  END
>  <docking_score>  (1) 
-3.8490000000000002

$$$$

     RDKit          3D

 16 16  0  0  0  0  0  0  0  0999 V2000
   15.3054   -1.8365   -6.1352 C   0  0  0  0  0  0  0  0  0  0  0  0
   14.6784   -3.2018   -6.1049 C   0  0  1  0  0  0  0  0  0  0  0  0
   14.9868   -3.9423   -7.3675 C   0  0  0  0  0  0  0  0  0  0  0  0
   14.4423   -5.3334   -7.3886 C   0  0  2  0  0  0  0  0  0  0  0  0
   13.4972   -5.5483   -8.3824 O   0  0  0  0  0  0  0  0  0  0  0  0
   13.9277   -5.6818   -6.0093 C   0  0  2  0  0  0  0  0  0  0  0  0
   12.8481   -4.8630   -5.6588 O   0  0  0  0  0  0  0  0  0  0  0  0
   15.0538   -5.4113   -5.0324 C   0  0  1  0  0  0  0  0  0  0  0  0
   16.2497   -5.9664   -5.5379 O   0  0  0  0  0  0  0  0  0  0  0  0
   15.1588   -3.9172   -4.8782 C   0  0  1  0  0  0  0  0  0  0  0  0
   16.4633   -3.4841   -4.4337 N   0  0  0  0  0  0  0  0  0  0  0  0
   16.5046   -3.3233   -3.0088 C   0  0  0  0  0  3  0  0  0  0  0  0
   16.4349   -1.8785   -2.5827 C   0  0  0  0  0  0  0  0  0  0  0  0
   17.6058   -1.4809   -1.9103 O   0  0  0  0  0  0  0  0  0  0  0  0
   18.8329   -1.6830   -2.5104 C   0  0  0  0  0  0  0  0  0  0  0  0
   19.3990   -0.7006   -3.0485 O   0  0  0  0  0  0  0  0  0  0  0  0
  2  1  1  6
  2  3  1  0
  3  4  1  0
  4  5  1  6
  4  6  1  0
  6  7  1  1
  6  8  1  0
  8  9  1  6
  8 10  1  0
 10 11  1  6
 11 12  1  0
 12 13  1  0
 13 14  1  0
 14 15  1  0
 15 16  2  0
 10  2  1  0
M  RAD  1  12   2
M  END
>  <docking_score>  (2) 
-3.8159999999999998

$$$$

     RDKit          3D

 16 16  0  0  0  0  0  0  0  0999 V2000
   18.3118   -1.1643   -6.0054 C   0  0  0  0  0  0  0  0  0  0  0  0
   17.0077   -1.5350   -5.3572 C   0  0  1  0  0  0  0  0  0  0  0  0
   15.8809   -0.7834   -5.9920 C   0  0  0  0  0  0  0  0  0  0  0  0
   14.5408   -1.1411   -5.4368 C   0  0  2  0  0  0  0  0  0  0  0  0
   13.8960   -0.0840   -4.8091 O   0  0  0  0  0  0  0  0  0  0  0  0
   14.6862   -2.3508   -4.5401 C   0  0  2  0  0  0  0  0  0  0  0  0
   15.4841   -2.0545   -3.4291 O   0  0  0  0  0  0  0  0  0  0  0  0
   15.3911   -3.4216   -5.3475 C   0  0  1  0  0  0  0  0  0  0  0  0
   14.7894   -3.5132   -6.6216 O   0  0  0  0  0  0  0  0  0  0  0  0
   16.8394   -3.0219   -5.4466 C   0  0  1  0  0  0  0  0  0  0  0  0
   17.5126   -3.6096   -6.5818 N   0  0  0  0  0  0  0  0  0  0  0  0
   17.9919   -4.9279   -6.2816 C   0  0  0  0  0  3  0  0  0  0  0  0
   18.6800   -5.0074   -4.9421 C   0  0  0  0  0  0  0  0  0  0  0  0
   18.0933   -5.9852   -4.1169 O   0  0  0  0  0  0  0  0  0  0  0  0
   17.8592   -5.6971   -2.7870 C   0  0  0  0  0  0  0  0  0  0  0  0
   16.8174   -5.0625   -2.4919 O   0  0  0  0  0  0  0  0  0  0  0  0
  2  1  1  6
  2  3  1  0
  3  4  1  0
  4  5  1  1
  4  6  1  0
  6  7  1  1
  6  8  1  0
  8  9  1  6
  8 10  1  0
 10 11  1  6
 11 12  1  0
 12 13  1  0
 13 14  1  0
 14 15  1  0
 15 16  2  0
 10  2  1  0
M  RAD  1  12   2
M  END
>  <docking_score>  (3) 
-3.6320000000000001

$$$$
