
     RDKit          3D

 32 34  0  0  0  0  0  0  0  0999 V2000
    4.8030   12.7167    4.0766 C   0  0  1  0  0  0  0  0  0  0  0  0
    4.2727   11.6427    3.1853 C   0  0  1  0  0  0  0  0  0  0  0  0
    3.1986   12.1577    2.2411 C   0  0  0  0  0  0  0  0  0  0  0  0
    5.3575   10.9036    2.4384 C   0  0  0  0  0  0  0  0  0  0  0  0
    4.7392    9.6093    1.9306 C   0  0  0  0  0  0  0  0  0  0  0  0
    4.8275    8.5221    2.9987 C   0  0  0  0  0  0  0  0  0  0  0  0
    3.5478    7.7153    3.0632 C   0  0  1  0  0  0  0  0  0  0  0  0
    3.7810    6.2647    2.7045 C   0  0  0  0  0  0  0  0  0  0  0  0
    2.8363    7.8642    4.3833 C   0  0  0  0  0  3  0  0  0  0  0  0
    3.7782    7.8789    5.5597 C   0  0  0  0  0  0  0  0  0  0  0  0
    4.3858    9.2432    5.7987 C   0  0  0  0  0  0  0  0  0  0  0  0
    3.3419   10.2663    6.1952 C   0  0  1  0  0  0  0  0  0  0  0  0
    4.0253   11.5427    6.5060 C   0  0  0  0  0  0  0  0  0  0  0  0
    2.3364   10.5122    5.0886 C   0  0  0  0  0  0  0  0  0  0  0  0
    2.5475    9.8015    7.3843 C   0  0  0  0  0  0  0  0  0  0  0  0
    2.9984    9.9204    8.6288 C   0  0  0  0  0  0  0  0  0  0  0  0
    4.3360   10.5361    8.8360 C   0  0  0  0  0  0  0  0  0  0  0  0
    4.7190   10.3009   10.2823 C   0  0  0  0  0  0  0  0  0  0  0  0
    3.7925   11.1343   11.1378 C   0  0  2  0  0  0  0  0  0  0  0  0
    2.6303   11.6610   10.3278 C   0  0  0  0  0  0  0  0  0  0  0  0
    4.5199   12.3000   11.7541 C   0  0  0  0  0  0  0  0  0  0  0  0
    5.4292   13.0009   10.7498 C   0  0  0  0  0  0  0  0  0  0  0  0
    4.7820   14.2662   10.2164 C   0  0  1  0  0  0  0  0  0  0  0  0
    3.5533   14.6453   11.0178 C   0  0  0  0  0  0  0  0  0  0  0  0
    5.6980   15.3353   10.2232 O   0  0  0  0  0  0  0  0  0  0  0  0
    6.0062   15.7116    8.9037 C   0  0  0  0  0  0  0  0  0  0  0  0
    6.5932   14.5267    8.1426 C   0  0  0  0  0  0  0  0  0  0  0  0
    5.5058   13.5495    7.7311 C   0  0  0  0  0  0  0  0  0  0  0  0
    4.6775   14.1523    6.6153 C   0  0  0  0  0  0  0  0  0  0  0  0
    5.3174   11.9204    5.6621 S   0  0  1  0  0  0  0  0  0  0  0  0
    6.5316   12.3471    5.0276 C   0  0  0  0  0  0  0  0  0  0  0  0
    6.2329   12.9075    3.9209 C   0  0  0  0  0  0  0  0  0  0  0  0
  1  2  1  0
  2  3  1  6
  2  4  1  0
  4  5  1  0
  5  6  1  0
  6  7  1  0
  7  8  1  1
  7  9  1  0
  9 10  1  0
 10 11  1  0
 11 12  1  0
 12 13  1  0
 12 14  1  6
 12 15  1  0
 15 16  2  3
 16 17  1  0
 17 18  1  0
 18 19  1  0
 19 20  1  6
 19 21  1  0
 21 22  1  0
 22 23  1  0
 23 24  1  1
 23 25  1  0
 25 26  1  0
 26 27  1  0
 27 28  1  0
 28 29  1  0
 29 30  1  0
 30 31  1  0
 31 32  2  0
 30  1  1  0
  1 32  1  6
 30 13  1  0
M  RAD  1   9   2
M  END
>  <docking_score>  (1) 
-4.9989999999999997

$$$$

     RDKit          3D

 32 34  0  0  0  0  0  0  0  0999 V2000
    4.1021    8.3767    6.8435 C   0  0  1  0  0  0  0  0  0  0  0  0
    4.2985    8.9389    5.4744 C   0  0  1  0  0  0  0  0  0  0  0  0
    5.5756    8.4333    4.8233 C   0  0  0  0  0  0  0  0  0  0  0  0
    3.1023    8.7384    4.5746 C   0  0  0  0  0  0  0  0  0  0  0  0
    3.2624    9.7021    3.4079 C   0  0  0  0  0  0  0  0  0  0  0  0
    2.6819   11.0687    3.7625 C   0  0  0  0  0  0  0  0  0  0  0  0
    3.5728   12.1864    3.2627 C   0  0  1  0  0  0  0  0  0  0  0  0
    2.8718   13.0443    2.2333 C   0  0  0  0  0  0  0  0  0  0  0  0
    4.1527   13.0089    4.3844 C   0  0  0  0  0  3  0  0  0  0  0  0
    3.1651   13.2705    5.4922 C   0  0  0  0  0  0  0  0  0  0  0  0
    3.0672   12.1172    6.4657 C   0  0  0  0  0  0  0  0  0  0  0  0
    4.3631   11.9007    7.2192 C   0  0  1  0  0  0  0  0  0  0  0  0
    4.1560   10.8256    8.2163 C   0  0  0  0  0  0  0  0  0  0  0  0
    5.4963   11.4955    6.2984 C   0  0  0  0  0  0  0  0  0  0  0  0
    4.8127   13.1618    7.9034 C   0  0  0  0  0  0  0  0  0  0  0  0
    4.3112   13.5532    9.0702 C   0  0  0  0  0  0  0  0  0  0  0  0
    3.2704   12.7041    9.7082 C   0  0  0  0  0  0  0  0  0  0  0  0
    2.6841   13.4994   10.8561 C   0  0  0  0  0  0  0  0  0  0  0  0
    3.7564   13.6262   11.9138 C   0  0  2  0  0  0  0  0  0  0  0  0
    5.1058   13.2126   11.3732 C   0  0  0  0  0  0  0  0  0  0  0  0
    3.4379   12.7799   13.1179 C   0  0  0  0  0  0  0  0  0  0  0  0
    2.9477   11.3899   12.7250 C   0  0  0  0  0  0  0  0  0  0  0  0
    4.0567   10.3616   12.8566 C   0  0  1  0  0  0  0  0  0  0  0  0
    5.2516   10.9214   13.6011 C   0  0  0  0  0  0  0  0  0  0  0  0
    3.5901    9.2070   13.5134 O   0  0  0  0  0  0  0  0  0  0  0  0
    3.5729    8.1208   12.6204 C   0  0  0  0  0  0  0  0  0  0  0  0
    2.6798    8.4374   11.4247 C   0  0  0  0  0  0  0  0  0  0  0  0
    3.3793    9.3721   10.4532 C   0  0  0  0  0  0  0  0  0  0  0  0
    4.4772    8.6214    9.7281 C   0  0  0  0  0  0  0  0  0  0  0  0
    3.1784    9.6332    7.8337 S   0  0  1  0  0  0  0  0  0  0  0  0
    2.2694    8.5389    7.6458 C   0  0  0  0  0  0  0  0  0  0  0  0
    2.8598    7.6367    6.9636 C   0  0  0  0  0  0  0  0  0  0  0  0
  1  2  1  0
  2  3  1  6
  2  4  1  0
  4  5  1  0
  5  6  1  0
  6  7  1  0
  7  8  1  6
  7  9  1  0
  9 10  1  0
 10 11  1  0
 11 12  1  0
 12 13  1  0
 12 14  1  6
 12 15  1  0
 15 16  2  3
 16 17  1  0
 17 18  1  0
 18 19  1  0
 19 20  1  6
 19 21  1  0
 21 22  1  0
 22 23  1  0
 23 24  1  1
 23 25  1  0
 25 26  1  0
 26 27  1  0
 27 28  1  0
 28 29  1  0
 29 30  1  0
 30 31  1  0
 31 32  2  0
 30  1  1  0
  1 32  1  6
 30 13  1  0
M  RAD  1   9   2
M  END
>  <docking_score>  (2) 
-4.9379999999999997

$$$$

     RDKit          3D

 32 34  0  0  0  0  0  0  0  0999 V2000
   19.6083   -2.9642   -2.1630 C   0  0  1  0  0  0  0  0  0  0  0  0
   19.5992   -1.4740   -2.2542 C   0  0  1  0  0  0  0  0  0  0  0  0
   18.4498   -0.8575   -1.4737 C   0  0  0  0  0  0  0  0  0  0  0  0
   20.9215   -0.8495   -1.8772 C   0  0  0  0  0  0  0  0  0  0  0  0
   20.9053    0.5741   -2.4144 C   0  0  0  0  0  0  0  0  0  0  0  0
   21.3825    0.6016   -3.8642 C   0  0  0  0  0  0  0  0  0  0  0  0
   20.5400    1.5437   -4.6982 C   0  0  1  0  0  0  0  0  0  0  0  0
   21.3580    2.6922   -5.2449 C   0  0  0  0  0  0  0  0  0  0  0  0
   19.7739    0.8289   -5.7814 C   0  0  0  0  0  3  0  0  0  0  0  0
   20.5773   -0.2565   -6.4505 C   0  0  0  0  0  0  0  0  0  0  0  0
   20.5667   -1.5511   -5.6687 C   0  0  0  0  0  0  0  0  0  0  0  0
   19.1811   -2.1583   -5.5975 C   0  0  1  0  0  0  0  0  0  0  0  0
   19.2724   -3.4644   -4.9057 C   0  0  0  0  0  0  0  0  0  0  0  0
   18.2107   -1.2754   -4.8393 C   0  0  0  0  0  0  0  0  0  0  0  0
   18.5945   -2.3394   -6.9701 C   0  0  0  0  0  0  0  0  0  0  0  0
   18.9045   -3.3753   -7.7428 C   0  0  0  0  0  0  0  0  0  0  0  0
   19.8660   -4.3809   -7.2178 C   0  0  0  0  0  0  0  0  0  0  0  0
   20.2495   -5.2812   -8.3739 C   0  0  0  0  0  0  0  0  0  0  0  0
   19.0286   -6.0936   -8.7400 C   0  0  2  0  0  0  0  0  0  0  0  0
   17.7884   -5.5421   -8.0753 C   0  0  0  0  0  0  0  0  0  0  0  0
   19.1920   -7.5356   -8.3378 C   0  0  0  0  0  0  0  0  0  0  0  0
   19.7796   -7.6743   -6.9369 C   0  0  0  0  0  0  0  0  0  0  0  0
   18.6972   -7.9812   -5.9178 C   0  0  1  0  0  0  0  0  0  0  0  0
   17.3875   -8.3455   -6.5871 C   0  0  0  0  0  0  0  0  0  0  0  0
   19.0980   -9.0270   -5.0649 O   0  0  0  0  0  0  0  0  0  0  0  0
   19.2825   -8.5376   -3.7595 C   0  0  0  0  0  0  0  0  0  0  0  0
   20.3325   -7.4308   -3.7565 C   0  0  0  0  0  0  0  0  0  0  0  0
   19.7551   -6.1293   -4.2852 C   0  0  0  0  0  0  0  0  0  0  0  0
   18.8017   -5.5450   -3.2634 C   0  0  0  0  0  0  0  0  0  0  0  0
   20.3340   -3.6133   -3.7330 S   0  0  1  0  0  0  0  0  0  0  0  0
   21.2955   -3.9048   -2.7086 C   0  0  0  0  0  0  0  0  0  0  0  0
   20.8423   -3.4752   -1.5959 C   0  0  0  0  0  0  0  0  0  0  0  0
  1  2  1  0
  2  3  1  1
  2  4  1  0
  4  5  1  0
  5  6  1  0
  6  7  1  0
  7  8  1  6
  7  9  1  0
  9 10  1  0
 10 11  1  0
 11 12  1  0
 12 13  1  0
 12 14  1  1
 12 15  1  0
 15 16  2  3
 16 17  1  0
 17 18  1  0
 18 19  1  0
 19 20  1  1
 19 21  1  0
 21 22  1  0
 22 23  1  0
 23 24  1  6
 23 25  1  0
 25 26  1  0
 26 27  1  0
 27 28  1  0
 28 29  1  0
 29 30  1  0
 30 31  1  0
 31 32  2  0
 30  1  1  0
  1 32  1  1
 30 13  1  0
M  RAD  1   9   2
M  END
>  <docking_score>  (3) 
-4.4720000000000004

$$$$
