
     RDKit          3D

 30 30  0  0  0  0  0  0  0  0999 V2000
    3.1271   11.0728   10.4584 C   0  0  0  0  0  0  0  0  0  0  0  0
    2.9468   12.5529   10.1849 C   0  0  0  0  0  0  0  0  0  0  0  0
    3.5033   13.3314   11.3512 C   0  0  2  0  0  0  0  0  0  0  0  0
    2.4863   13.4178   12.4608 C   0  0  0  0  0  0  0  0  0  0  0  0
    3.8542   14.7176   10.9290 C   0  0  0  0  0  0  0  0  0  0  0  0
    3.0095   15.6319   11.0945 O   0  0  0  0  0  0  0  0  0  0  0  0
    5.0935   14.9823   10.3648 O   0  0  0  0  0  0  0  0  0  0  0  0
    5.1083   15.8887    9.2639 C   0  0  0  0  0  3  0  0  0  0  0  0
    4.9213   15.1280    7.9843 C   0  0  0  0  0  0  0  0  0  0  0  0
    6.0398   14.1564    7.7762 C   0  0  2  0  0  0  0  0  0  0  0  0
    7.2769   14.6602    8.1298 O   0  0  0  0  0  0  0  0  0  0  0  0
    6.0426   13.6382    6.4121 C   0  0  0  0  0  0  0  0  0  0  0  0
    6.2408   14.5216    5.3602 C   0  0  0  0  0  0  0  0  0  0  0  0
    6.2008   13.7405    4.0608 C   0  0  0  0  0  0  0  0  0  0  0  0
    4.8983   13.4598    3.7743 C   0  0  0  0  0  0  0  0  0  0  0  0
    4.7041   12.6373    2.4986 C   0  0  2  0  0  0  0  0  0  0  0  0
    3.1882   12.3248    2.5598 C   0  0  0  0  0  0  0  0  0  0  0  0
    5.4725   11.3366    2.7983 C   0  0  2  0  0  0  0  0  0  0  0  0
    4.8812   10.2247    2.0304 C   0  0  0  0  0  0  0  0  0  0  0  0
    4.9357    8.8703    2.6225 C   0  0  0  0  0  0  0  0  0  0  0  0
    3.5785    8.2691    2.8085 C   0  0  0  0  0  0  0  0  0  0  0  0
    3.0430    8.7581    4.1546 C   0  0  0  0  0  3  0  0  0  0  0  0
    3.3529    7.6439    5.1587 C   0  0  0  0  0  0  0  0  0  0  0  0
    4.0749    8.2301    6.2087 O   0  0  0  0  0  0  0  0  0  0  0  0
    3.6846    7.6211    7.4056 C   0  0  0  0  0  3  0  0  0  0  0  0
    3.0850    6.2637    7.1036 C   0  0  0  0  0  0  0  0  0  0  0  0
    5.5601   11.0730    4.1259 O   0  0  0  0  0  0  0  0  0  0  0  0
    5.2484   12.0169    4.9100 O   0  0  0  0  0  0  0  0  0  0  0  0
    5.8609   12.1974    6.1153 C   0  0  2  0  0  0  0  0  0  0  0  0
    4.8281   11.7093    7.1595 C   0  0  0  0  0  2  0  0  0  0  0  0
  1  2  1  0
  2  3  1  0
  3  4  1  1
  3  5  1  0
  5  6  2  0
  5  7  1  0
  7  8  1  0
  8  9  1  0
  9 10  1  0
 10 11  1  6
 10 12  1  0
 12 13  2  3
 13 14  1  0
 14 15  2  3
 15 16  1  0
 16 17  1  1
 16 18  1  0
 18 19  1  6
 19 20  1  0
 20 21  1  0
 21 22  1  0
 22 23  1  0
 23 24  1  0
 24 25  1  0
 25 26  1  0
 18 27  1  0
 27 28  1  0
 28 29  1  0
 29 30  1  1
 29 12  1  0
M  RAD  4   8   2  22   2  25   2  30   3
M  END
>  <docking_score>  (1) 
-2.6059999999999999

$$$$

     RDKit          3D

 30 30  0  0  0  0  0  0  0  0999 V2000
   19.1346   -5.6025   -7.0955 C   0  0  0  0  0  0  0  0  0  0  0  0
   18.9752   -7.1098   -7.0800 C   0  0  0  0  0  0  0  0  0  0  0  0
   17.5606   -7.4506   -7.4787 C   0  0  2  0  0  0  0  0  0  0  0  0
   17.1295   -6.6158   -8.6578 C   0  0  0  0  0  0  0  0  0  0  0  0
   16.6249   -7.1833   -6.3490 C   0  0  0  0  0  0  0  0  0  0  0  0
   16.6249   -7.9651   -5.3664 O   0  0  0  0  0  0  0  0  0  0  0  0
   15.7740   -6.0886   -6.3921 O   0  0  0  0  0  0  0  0  0  0  0  0
   15.6566   -5.3293   -5.1908 C   0  0  0  0  0  3  0  0  0  0  0  0
   14.5733   -4.3033   -5.3487 C   0  0  0  0  0  0  0  0  0  0  0  0
   14.9457   -3.0281   -4.6606 C   0  0  2  0  0  0  0  0  0  0  0  0
   14.2728   -1.9245   -5.1491 O   0  0  0  0  0  0  0  0  0  0  0  0
   16.3905   -2.8233   -4.6734 C   0  0  0  0  0  0  0  0  0  0  0  0
   17.1837   -3.5922   -3.8334 C   0  0  0  0  0  0  0  0  0  0  0  0
   18.6319   -3.1903   -4.0369 C   0  0  0  0  0  0  0  0  0  0  0  0
   18.8385   -2.0073   -3.3927 C   0  0  0  0  0  0  0  0  0  0  0  0
   20.2582   -1.4560   -3.5420 C   0  0  2  0  0  0  0  0  0  0  0  0
   20.1170   -0.0575   -2.8913 C   0  0  0  0  0  0  0  0  0  0  0  0
   20.4023   -1.2628   -5.0631 C   0  0  2  0  0  0  0  0  0  0  0  0
   21.3694   -0.1828   -5.3351 C   0  0  0  0  0  0  0  0  0  0  0  0
   20.9663    0.8848   -6.2761 C   0  0  0  0  0  0  0  0  0  0  0  0
   20.0544    1.8907   -5.6479 C   0  0  0  0  0  0  0  0  0  0  0  0
   20.8918    3.1296   -5.3288 C   0  0  0  0  0  3  0  0  0  0  0  0
   20.1227    4.3175   -5.9146 C   0  0  0  0  0  0  0  0  0  0  0  0
   20.4632    5.4420   -5.1483 O   0  0  0  0  0  0  0  0  0  0  0  0
   19.3295    6.2516   -5.0262 C   0  0  0  0  0  3  0  0  0  0  0  0
   18.4168    6.0159   -6.2112 C   0  0  0  0  0  0  0  0  0  0  0  0
   19.2110   -1.0726   -5.6830 O   0  0  0  0  0  0  0  0  0  0  0  0
   18.1743   -1.3319   -5.0041 O   0  0  0  0  0  0  0  0  0  0  0  0
   17.0391   -1.8355   -5.5682 C   0  0  2  0  0  0  0  0  0  0  0  0
   16.0564   -0.6407   -5.6109 C   0  0  0  0  0  2  0  0  0  0  0  0
  1  2  1  0
  2  3  1  0
  3  4  1  6
  3  5  1  0
  5  6  2  0
  5  7  1  0
  7  8  1  0
  8  9  1  0
  9 10  1  0
 10 11  1  6
 10 12  1  0
 12 13  2  3
 13 14  1  0
 14 15  2  3
 15 16  1  0
 16 17  1  1
 16 18  1  0
 18 19  1  1
 19 20  1  0
 20 21  1  0
 21 22  1  0
 22 23  1  0
 23 24  1  0
 24 25  1  0
 25 26  1  0
 18 27  1  0
 27 28  1  0
 28 29  1  0
 29 30  1  1
 29 12  1  0
M  RAD  4   8   2  22   2  25   2  30   3
M  END
>  <docking_score>  (2) 
-2.3690000000000002

$$$$

     RDKit          3D

 30 30  0  0  0  0  0  0  0  0999 V2000
    7.8377   14.4270    3.7228 C   0  0  0  0  0  0  0  0  0  0  0  0
    6.8780   13.8114    2.7239 C   0  0  0  0  0  0  0  0  0  0  0  0
    6.3299   12.5318    3.3054 C   0  0  2  0  0  0  0  0  0  0  0  0
    7.3817   11.4518    3.2881 C   0  0  0  0  0  0  0  0  0  0  0  0
    5.1611   12.0594    2.5093 C   0  0  0  0  0  0  0  0  0  0  0  0
    4.2804   12.8906    2.1772 O   0  0  0  0  0  0  0  0  0  0  0  0
    5.0575   10.7243    2.1470 O   0  0  0  0  0  0  0  0  0  0  0  0
    4.1865    9.9186    2.9381 C   0  0  0  0  0  3  0  0  0  0  0  0
    4.2784    8.4898    2.4896 C   0  0  0  0  0  0  0  0  0  0  0  0
    3.9002    7.5600    3.5991 C   0  0  2  0  0  0  0  0  0  0  0  0
    2.8859    6.6852    3.2598 O   0  0  0  0  0  0  0  0  0  0  0  0
    3.5874    8.2946    4.8206 C   0  0  0  0  0  0  0  0  0  0  0  0
    2.4311    9.0608    4.8642 C   0  0  0  0  0  0  0  0  0  0  0  0
    2.3376    9.7148    6.2294 C   0  0  0  0  0  0  0  0  0  0  0  0
    3.2094   10.7618    6.2589 C   0  0  0  0  0  0  0  0  0  0  0  0
    3.2507   11.5008    7.5983 C   0  0  2  0  0  0  0  0  0  0  0  0
    4.4390   12.4702    7.3802 C   0  0  0  0  0  0  0  0  0  0  0  0
    3.6997   10.4097    8.5883 C   0  0  2  0  0  0  0  0  0  0  0  0
    4.4073   11.0322    9.7229 C   0  0  0  0  0  0  0  0  0  0  0  0
    3.5989   11.4910   10.8735 C   0  0  0  0  0  0  0  0  0  0  0  0
    4.0129   12.8422   11.3647 C   0  0  0  0  0  0  0  0  0  0  0  0
    3.4345   13.0142   12.7696 C   0  0  0  0  0  3  0  0  0  0  0  0
    4.0683   11.9106   13.6217 C   0  0  0  0  0  0  0  0  0  0  0  0
    4.9503   12.5391   14.5131 O   0  0  0  0  0  0  0  0  0  0  0  0
    4.3220   13.6791   15.0243 C   0  0  0  0  0  3  0  0  0  0  0  0
    5.3518   14.5535   15.7081 C   0  0  0  0  0  0  0  0  0  0  0  0
    4.4193    9.4257    7.9936 O   0  0  0  0  0  0  0  0  0  0  0  0
    4.3991    9.3985    6.7280 O   0  0  0  0  0  0  0  0  0  0  0  0
    4.4537    8.2328    6.0217 C   0  0  2  0  0  0  0  0  0  0  0  0
    5.8958    8.1777    5.4626 C   0  0  0  0  0  2  0  0  0  0  0  0
  1  2  1  0
  2  3  1  0
  3  4  1  6
  3  5  1  0
  5  6  2  0
  5  7  1  0
  7  8  1  0
  8  9  1  0
  9 10  1  0
 10 11  1  6
 10 12  1  0
 12 13  2  3
 13 14  1  0
 14 15  2  3
 15 16  1  0
 16 17  1  6
 16 18  1  0
 18 19  1  1
 19 20  1  0
 20 21  1  0
 21 22  1  0
 22 23  1  0
 23 24  1  0
 24 25  1  0
 25 26  1  0
 18 27  1  0
 27 28  1  0
 28 29  1  0
 29 30  1  6
 29 12  1  0
M  RAD  4   8   2  22   2  25   2  30   3
M  END
>  <docking_score>  (3) 
-2.0779999999999998

$$$$
