
     RDKit          3D

  3  2  0  0  0  0  0  0  0  0999 V2000
  135.9947  120.8019  138.2452 C   0  0  0  0  0  0  0  0  0  0  0  0
  135.5282  121.7742  139.0191 C   0  0  0  0  0  0  0  0  0  0  0  0
  133.9114  121.5324  140.0021 Br  0  0  0  0  0  0  0  0  0  0  0  0
  1  2  2  0
  2  3  1  0
M  END
>  <docking_score>  (1) 
-2.1110000000000002

$$$$

     RDKit          3D

  3  2  0  0  0  0  0  0  0  0999 V2000
  133.8171  121.4614  139.9862 C   0  0  0  0  0  0  0  0  0  0  0  0
  135.1347  121.5539  139.8555 C   0  0  0  0  0  0  0  0  0  0  0  0
  136.0221  120.6943  138.4020 Br  0  0  0  0  0  0  0  0  0  0  0  0
  1  2  2  0
  2  3  1  0
M  END
>  <docking_score>  (2) 
-2.0590000000000002

$$$$

     RDKit          3D

  3  2  0  0  0  0  0  0  0  0999 V2000
  142.8860  115.3754  150.1523 C   0  0  0  0  0  0  0  0  0  0  0  0
  141.8883  114.5679  149.8140 C   0  0  0  0  0  0  0  0  0  0  0  0
  140.3827  115.2441  148.8575 Br  0  0  0  0  0  0  0  0  0  0  0  0
  1  2  2  0
  2  3  1  0
M  END
>  <docking_score>  (3) 
-2.0339999999999998

$$$$
