
     RDKit          3D

 92 94  0  0  0  0  0  0  0  0999 V2000
   18.0892   -6.5944   -0.3847 C   0  0  0  0  0  0  0  0  0  0  0  0
   18.5820   -6.8723   -1.8039 C   0  0  0  0  0  0  0  0  0  0  0  0
   18.9792   -8.3530   -1.8402 C   0  0  0  0  0  0  0  0  0  0  0  0
   17.3928   -6.6561   -2.7452 C   0  0  0  0  0  0  0  0  0  0  0  0
   16.1033   -6.9884   -2.0385 C   0  0  0  0  0  0  0  0  0  0  0  0
   14.9781   -6.3501   -2.8051 C   0  0  0  0  0  0  0  0  0  0  0  0
   14.6636   -4.9467   -2.3432 C   0  0  1  0  0  0  0  0  0  0  0  0
   15.5763   -4.6204   -1.1892 C   0  0  0  0  0  0  0  0  0  0  0  0
   14.8538   -3.9523   -3.4594 C   0  0  0  0  0  3  0  0  0  0  0  0
   15.3226   -2.6302   -2.9164 C   0  0  0  0  0  3  0  0  0  0  0  0
   15.7200   -1.6649   -3.9906 C   0  0  0  0  0  0  0  0  0  0  0  0
   15.8499   -0.2761   -3.3584 C   0  0  2  0  0  0  0  0  0  0  0  0
   17.2521   -0.2662   -2.7319 C   0  0  0  0  0  0  0  0  0  0  0  0
   14.8138   -0.1361   -2.2496 C   0  0  0  0  0  3  0  0  0  0  0  0
   13.5318    0.4808   -2.7391 C   0  0  0  0  0  0  0  0  0  0  0  0
   12.4074   -0.4951   -2.5492 C   0  0  2  0  0  0  0  0  0  0  0  0
   12.6017   -1.1392   -1.1992 C   0  0  0  0  0  0  0  0  0  0  0  0
   12.5577   -1.5978   -3.5694 C   0  0  0  0  0  0  0  0  0  0  0  0
   11.7670   -1.4193   -4.8134 C   0  0  0  0  0  0  0  0  0  0  0  0
   10.9780   -2.6729   -5.0981 C   0  0  0  0  0  0  0  0  0  0  0  0
   11.7944   -3.9275   -5.0880 C   0  0  0  0  0  0  0  0  0  0  0  0
   12.1828   -4.3851   -3.6970 C   0  0  0  0  0  0  0  0  0  0  0  0
   11.2073   -5.4392   -3.2505 C   0  0  0  0  0  0  0  0  0  0  0  0
   11.3406   -5.7627   -1.7819 C   0  0  0  0  0  0  0  0  0  0  0  0
   11.0406   -4.5768   -0.9023 C   0  0  0  0  0  0  0  0  0  0  0  0
    9.6332   -4.0706   -1.0660 C   0  0  2  0  0  0  0  0  0  0  0  0
    8.6233   -5.1837   -1.1877 C   0  0  0  0  0  0  0  0  0  0  0  0
    9.5187   -3.1357   -2.0903 O   0  0  0  0  0  0  0  0  0  0  0  0
   10.4174   -2.1030   -1.8064 C   0  0  0  0  0  0  0  0  0  0  0  0
    9.9650   -0.7845   -2.3706 C   0  0  0  0  0  0  0  0  0  0  0  0
   11.0507    0.1644   -2.7007 C   0  0  2  0  0  0  0  0  0  0  0  0
   10.9306    0.6568   -4.1635 C   0  0  0  0  0  0  0  0  0  0  0  0
   10.0540    1.7693   -3.5848 C   0  0  0  0  0  3  0  0  0  0  0  0
   10.8975    1.5635   -2.2878 C   0  0  2  0  0  0  0  0  0  0  0  0
   12.1797    2.4110   -2.5281 C   0  0  0  0  0  0  0  0  0  0  0  0
   10.1354    2.0425   -1.1469 C   0  0  0  0  0  0  0  0  0  0  0  0
    9.5690    3.3583   -1.0254 C   0  0  0  0  0  0  0  0  0  0  0  0
    9.8080    4.0711    0.2484 C   0  0  1  0  0  0  0  0  0  0  0  0
   10.8863    5.1787    0.0272 C   0  0  0  0  0  0  0  0  0  0  0  0
    8.5437    4.8351    0.7086 C   0  0  0  0  0  3  0  0  0  0  0  0
    7.4766    4.8925   -0.3010 C   0  0  0  0  0  0  0  0  0  0  0  0
    7.6970    5.6145   -1.5518 C   0  0  2  0  0  0  0  0  0  0  0  0
    8.7227    6.6856   -1.5783 C   0  0  0  0  0  0  0  0  0  0  0  0
    6.5525    5.7694   -2.4755 C   0  0  0  0  0  0  0  0  0  0  0  0
    5.4720    6.6763   -1.9542 C   0  0  2  0  0  0  0  0  0  0  0  0
    5.9915    7.8341   -1.1564 C   0  0  0  0  0  0  0  0  0  0  0  0
    7.3111    8.3463   -1.6536 C   0  0  1  0  0  0  0  0  0  0  0  0
    7.0525    9.7150   -2.2950 C   0  0  0  0  0  0  0  0  0  0  0  0
    8.3122    8.5681   -0.5604 C   0  0  0  0  0  0  0  0  0  0  0  0
    7.7445    8.3900    0.8178 C   0  0  0  0  0  0  0  0  0  0  0  0
    8.3777    9.3398    1.7951 C   0  0  0  0  0  0  0  0  0  0  0  0
    8.0900   10.6163    1.8350 C   0  0  0  0  0  0  0  0  0  0  0  0
    8.7396   11.5219    2.8175 C   0  0  0  0  0  0  0  0  0  0  0  0
    7.1013   11.1891    0.8913 C   0  0  0  0  0  3  0  0  0  0  0  0
    5.7707   11.4804    1.5387 C   0  0  0  0  0  0  0  0  0  0  0  0
    5.8418   12.5835    2.5638 C   0  0  0  0  0  0  0  0  0  0  0  0
    5.9633   12.0549    3.9814 C   0  0  0  0  0  0  0  0  0  0  0  0
    4.5418   12.0892    4.5596 C   0  0  0  0  0  0  0  0  0  0  0  0
    4.2124   13.5453    4.7981 C   0  0  0  0  0  0  0  0  0  0  0  0
    3.9871   13.7786    6.2703 C   0  0  0  0  0  3  0  0  0  0  0  0
    5.2275   14.3551    6.8894 C   0  0  0  0  0  0  0  0  0  0  0  0
    6.4463   13.6011    6.3764 C   0  0  0  0  0  0  0  0  0  0  0  0
    7.3886   13.2640    7.5318 C   0  0  0  0  0  3  0  0  0  0  0  0
    6.7528   13.7297    8.8458 C   0  0  0  0  0  2  0  0  0  0  0  0
    6.5505   15.5406    8.8555 S   0  0  0  0  0  0  0  0  0  0  0  0
    5.1517   15.9435    9.9421 C   0  0  0  0  0  0  0  0  0  0  0  0
    5.1521   14.9592   11.0989 C   0  0  0  0  0  3  0  0  0  0  0  0
    5.6972   15.6015   12.3556 C   0  0  0  0  0  0  0  0  0  0  0  0
    5.8164   14.5305   13.4157 C   0  0  1  0  0  0  0  0  0  0  0  0
    4.4991   14.4781   14.1737 C   0  0  0  0  0  0  0  0  0  0  0  0
    6.0284   13.2133   12.6977 C   0  0  0  0  0  3  0  0  0  0  0  0
    4.6686   12.6071   12.4544 C   0  0  0  0  0  0  0  0  0  0  0  0
    4.6028   12.0211   11.0766 C   0  0  0  0  0  0  0  0  0  0  0  0
    3.1517   11.7064   10.7051 C   0  0  1  0  0  0  0  0  0  0  0  0
    2.2575   12.8652   11.0711 C   0  0  0  0  0  0  0  0  0  0  0  0
    3.0630   11.4714    9.2141 C   0  0  0  0  0  3  0  0  0  0  0  0
    4.1883   10.5716    8.7646 C   0  0  0  0  0  0  0  0  0  0  0  0
    3.6046    9.2929    8.2037 C   0  0  0  0  0  0  0  0  0  0  0  0
    4.6647    8.5436    7.4481 C   0  0  0  0  0  0  0  0  0  0  0  0
    6.0158    9.0665    7.8690 C   0  0  0  0  0  0  0  0  0  0  0  0
    6.9166    9.5730    6.3668 S   0  0  0  0  0  0  0  0  0  0  0  0
    6.2235    8.7853    4.8863 C   0  0  0  0  0  0  0  0  0  0  0  0
    5.3672    7.5833    5.2439 C   0  0  0  0  0  3  0  0  0  0  0  0
    3.9839    7.7408    4.6222 C   0  0  0  0  0  0  0  0  0  0  0  0
    4.0795    8.8086    3.5551 C   0  0  0  0  0  0  0  0  0  0  0  0
    2.8421    8.8419    2.6818 C   0  0  1  0  0  0  0  0  0  0  0  0
    2.4279   10.2972    2.5111 C   0  0  0  0  0  0  0  0  0  0  0  0
    3.1514    8.2895    1.2908 C   0  0  0  0  0  3  0  0  0  0  0  0
    3.1068    6.7866    1.2797 C   0  0  0  0  0  0  0  0  0  0  0  0
    4.4361    6.1742    1.6096 C   0  0  0  0  0  3  0  0  0  0  0  0
    4.7733    5.1740    0.5026 C   0  0  0  0  0  2  0  0  0  0  0  0
    4.1709    5.7738   -1.1086 S   0  0  0  0  0  0  0  0  0  0  0  0
  1  2  1  0
  2  3  1  0
  2  4  1  0
  4  5  1  0
  5  6  1  0
  6  7  1  0
  7  8  1  1
  7  9  1  0
  9 10  1  0
 10 11  1  0
 11 12  1  0
 12 13  1  1
 12 14  1  0
 14 15  1  0
 15 16  1  0
 16 17  1  1
 16 18  1  0
 18 19  1  0
 19 20  1  0
 20 21  1  0
 21 22  1  0
 22 23  1  0
 23 24  1  0
 24 25  1  0
 25 26  1  0
 26 27  1  6
 26 28  1  0
 28 29  1  0
 29 30  1  0
 31 30  1  1
 31 32  1  0
 32 33  1  0
 33 34  1  0
 34 35  1  6
 34 36  1  0
 36 37  1  0
 37 38  1  0
 38 39  1  6
 38 40  1  0
 40 41  1  0
 41 42  1  0
 42 43  1  1
 42 44  1  0
 45 44  1  1
 45 46  1  0
 46 47  1  0
 47 48  1  1
 47 49  1  0
 49 50  1  0
 50 51  1  0
 51 52  2  3
 52 53  1  0
 52 54  1  0
 54 55  1  0
 55 56  1  0
 56 57  1  0
 57 58  1  0
 58 59  1  0
 59 60  1  0
 60 61  1  0
 61 62  1  0
 62 63  1  0
 63 64  1  0
 64 65  1  0
 65 66  1  0
 66 67  1  0
 67 68  1  0
 68 69  1  0
 69 70  1  6
 69 71  1  0
 71 72  1  0
 72 73  1  0
 73 74  1  0
 74 75  1  6
 74 76  1  0
 76 77  1  0
 77 78  1  0
 78 79  1  0
 79 80  1  0
 80 81  1  0
 81 82  1  0
 82 83  1  0
 83 84  1  0
 84 85  1  0
 85 86  1  0
 86 87  1  6
 86 88  1  0
 88 89  1  0
 89 90  1  0
 90 91  1  0
 91 92  1  0
 31 16  1  0
 34 31  1  0
 92 45  1  0
M  RAD  8   9   2  10   2  14   2  33   2  40   2  54   2  60   2  63   2
M  RAD  8  64   3  67   2  71   2  76   2  83   2  88   2  90   2  91   3
M  END
>  <docking_score>  (1) 
213.292

$$$$
