
     RDKit          3D

 64 67  0  0  0  0  0  0  0  0999 V2000
   16.7365   -1.2478   -3.9762 C   0  0  0  0  0  0  0  0  0  0  0  0
   16.2369   -0.2302   -4.9067 C   0  0  1  0  0  0  0  0  0  0  0  0
   15.4858   -0.9319   -6.0410 C   0  0  0  0  0  0  0  0  0  0  0  0
   15.6075    0.9784   -4.3414 C   0  0  0  0  0  0  0  0  0  0  0  0
   15.2633    2.0377   -5.4205 C   0  0  0  0  0  0  0  0  0  0  0  0
   15.1646    3.3996   -4.7188 C   0  0  0  0  0  0  0  0  0  0  0  0
   16.2341    3.5274   -3.6422 C   0  0  1  0  0  0  0  0  0  0  0  0
   17.1857    2.4063   -3.8657 C   0  0  0  0  0  0  0  0  0  0  0  0
   17.0270    4.8060   -3.7551 C   0  0  0  0  0  3  0  0  0  0  0  0
   18.1803    4.8910   -2.8242 C   0  0  0  0  0  0  0  0  0  0  0  0
   19.3274    5.6905   -3.1576 C   0  0  0  0  0  0  0  0  0  0  0  0
   19.1504    7.1491   -3.0662 C   0  0  0  0  0  0  0  0  0  0  0  0
   17.6914    7.4765   -3.2743 C   0  0  0  0  0  0  0  0  0  0  0  0
   19.4980    7.5571   -1.5733 C   0  0  0  0  0  0  0  0  0  0  0  0
   20.0042    8.0190   -3.9343 C   0  0  0  0  0  0  0  0  0  0  0  0
   19.9579    8.1856   -5.1484 C   0  0  0  0  0  0  0  0  0  0  0  0
   20.1228    8.5523   -6.4550 C   0  0  0  0  0  0  0  0  0  0  0  0
   20.7747    7.5504   -7.4243 C   0  0  0  0  0  0  0  0  0  0  0  0
   20.3734    6.1241   -6.9786 C   0  0  2  0  0  0  0  0  0  0  0  0
   18.9702    6.2984   -6.3323 C   0  0  0  0  0  0  0  0  0  0  0  0
   21.3816    5.7235   -5.8573 C   0  0  0  0  0  0  0  0  0  0  0  0
   21.0204    4.2313   -5.5333 C   0  0  0  0  0  0  0  0  0  0  0  0
   19.5585    4.0980   -5.8923 C   0  0  0  0  0  0  0  0  0  0  0  0
   19.2383    2.7154   -6.3784 C   0  0  0  0  0  0  0  0  0  0  0  0
   18.0268    2.6256   -7.2631 C   0  0  0  0  0  0  0  0  0  0  0  0
   19.9243    1.6757   -6.0823 C   0  0  0  0  0  0  0  0  0  0  0  0
   21.1603    1.5481   -5.2478 C   0  0  0  0  0  0  0  0  0  0  0  0
   20.8396   -0.1010   -4.3440 S   0  0  0  0  0  0  0  0  0  0  0  0
   19.2132    0.0516   -3.7491 C   0  0  0  0  0  0  0  0  0  0  0  0
   18.1890   -1.2634   -3.3248 S   0  0  0  0  0  0  0  0  0  0  0  0
   18.8671   -2.7751   -4.0483 C   0  0  0  0  0  0  0  0  0  0  0  0
   19.1419   -3.6018   -4.8744 C   0  0  0  0  0  0  0  0  0  0  0  0
   20.0513   -5.0875   -4.2444 S   0  0  0  0  0  0  0  0  0  0  0  0
   19.1190   -3.5317   -6.4144 C   0  0  1  0  0  0  0  0  0  0  0  0
   18.7835   -1.8896   -7.1102 S   0  0  0  0  0  0  0  0  0  0  0  0
   20.5871   -3.9378   -6.8157 C   0  0  0  0  0  0  0  0  0  0  0  0
   20.4286   -4.9847   -6.0078 C   0  0  0  0  0  0  0  0  0  0  0  0
   18.4491   -4.7253   -7.2278 S   0  0  0  0  0  0  0  0  0  0  0  0
   17.5307   -6.0239   -6.5533 C   0  0  0  0  0  0  0  0  0  0  0  0
   19.4287   -5.2151   -8.7344 C   0  0  0  0  0  0  0  0  0  0  0  0
   19.9768   -6.2493   -8.3585 C   0  0  0  0  0  0  0  0  0  0  0  0
   20.6835   -7.5785   -7.8627 S   0  0  0  0  0  0  0  0  0  0  0  0
   21.3692   -8.8554   -7.3687 C   0  0  0  0  0  3  0  0  0  0  0  0
   20.1470   -9.7186   -6.6844 C   0  0  0  0  0  2  0  0  0  0  0  0
   19.5019   -8.5302   -5.4134 S   0  0  0  0  0  0  0  0  0  0  0  0
   20.5910   -8.2314   -4.0639 C   0  0  0  0  0  0  0  0  0  0  0  0
   20.1983   -7.3740   -2.9368 C   0  0  0  0  0  3  0  0  0  0  0  0
   19.1782   -6.2594   -3.3402 C   0  0  2  0  0  0  0  0  0  0  0  0
   17.7795   -7.1594   -4.0743 S   0  0  0  0  0  0  0  0  0  0  0  0
   18.6044   -5.7589   -1.9943 C   0  0  0  0  0  0  0  0  0  0  0  0
   17.1172   -5.9397   -2.0033 C   0  0  0  0  0  0  0  0  0  0  0  0
   16.4325   -4.6555   -1.7546 C   0  0  0  0  0  0  0  0  0  0  0  0
   15.0784   -4.5477   -2.3936 C   0  0  0  0  0  0  0  0  0  0  0  0
   15.0902   -4.4510   -3.9024 C   0  0  0  0  0  3  0  0  0  0  0  0
   14.9062   -2.9905   -4.2703 C   0  0  0  0  0  0  0  0  0  0  0  0
   15.7674   -2.2157   -3.3883 C   0  0  2  0  0  0  0  0  0  0  0  0
   15.3491   -1.9098   -1.9997 C   0  0  0  0  0  0  0  0  0  0  0  0
   16.4070   -1.4506   -1.0708 C   0  0  0  0  0  3  0  0  0  0  0  0
   16.0441   -0.3041   -0.1929 C   0  0  0  0  0  0  0  0  0  0  0  0
   14.5756    0.0065   -0.1049 C   0  0  0  0  0  2  0  0  0  0  0  0
   13.9804   -0.3074    1.6046 S   0  0  0  0  0  0  0  0  0  0  0  0
   14.6003    0.9865    2.6885 C   0  0  0  0  0  0  0  0  0  0  0  0
   15.7497    1.7188    2.0541 C   0  0  0  0  0  0  0  0  0  0  0  0
   16.5832    2.6360    2.7141 S   0  0  0  0  0  0  0  0  0  0  0  0
  1  2  1  0
  2  3  1  6
  2  4  1  0
  4  5  1  0
  5  6  1  0
  6  7  1  0
  7  8  1  6
  7  9  1  0
  9 10  1  0
 10 11  1  0
 11 12  1  0
 12 13  1  0
 12 14  1  0
 12 15  1  0
 15 16  2  3
 16 17  1  0
 17 18  1  0
 18 19  1  0
 19 20  1  1
 19 21  1  0
 21 22  1  0
 22 23  1  0
 23 24  1  0
 24 25  1  0
 24 26  2  3
 26 27  1  0
 27 28  1  0
 28 29  1  0
 30 29  1  6
 30 31  1  0
 31 32  2  3
 32 33  1  0
 32 34  1  0
 34 35  1  1
 34 36  1  0
 36 37  2  0
 37 38  2  0
 38 39  1  0
 38 40  1  0
 40 41  1  0
 41 42  3  0
 42 43  1  0
 43 44  1  0
 44 45  1  0
 45 46  1  0
 46 47  1  0
 47 48  1  0
 48 49  1  6
 48 50  1  0
 50 51  1  0
 51 52  1  0
 52 53  1  0
 53 54  1  0
 54 55  1  0
 55 56  1  0
 56 57  1  1
 57 58  1  0
 58 59  1  0
 59 60  1  0
 60 61  1  0
 61 62  1  0
 62 63  1  0
 63 64  2  0
  1 30  2  3
 56  1  1  0
 48 33  1  0
 38 34  1  0
M  RAD  7   9   2  43   2  44   3  47   2  54   2  58   2  60   3
M  END
>  <docking_score>  (1) 
78.733999999999995

$$$$
