
     RDKit          3D

 14 13  0  0  0  0  0  0  0  0999 V2000
   14.6402    0.5619   -5.6534 O   0  0  0  0  0  0  0  0  0  0  0  0
   13.8682   -0.4777   -5.1461 C   0  0  0  0  0  0  0  0  0  0  0  0
   14.6187   -1.8000   -5.2809 C   0  0  0  0  0  3  0  0  0  0  0  0
   15.1347   -2.0962   -3.9357 N   0  0  0  0  0  0  0  0  0  0  0  0
   15.7057   -3.3997   -3.9133 C   0  0  2  0  0  0  0  0  0  0  0  0
   16.4842   -3.6807   -2.6753 C   0  0  0  0  0  0  0  0  0  0  0  0
   16.7159   -2.4681   -2.0108 O   0  0  0  0  0  0  0  0  0  0  0  0
   16.3417   -3.8703   -5.1620 C   0  0  1  0  0  0  0  0  0  0  0  0
   17.7397   -3.7929   -5.0717 O   0  0  0  0  0  0  0  0  0  0  0  0
   15.9964   -5.2401   -5.6187 C   0  0  2  0  0  0  0  0  0  0  0  0
   17.0291   -6.1610   -5.4943 O   0  0  0  0  0  0  0  0  0  0  0  0
   15.4303   -5.2945   -6.8700 O   0  0  0  0  0  0  0  0  0  0  0  0
   14.0538   -5.5042   -6.7556 C   0  0  0  0  0  3  0  0  0  0  0  0
   13.7739   -6.0789   -5.4991 O   0  0  0  0  0  1  0  0  0  0  0  0
  1  2  1  0
  2  3  1  0
  3  4  1  0
  4  5  1  0
  5  6  1  1
  6  7  1  0
  5  8  1  0
  8  9  1  1
  8 10  1  0
 10 11  1  6
 10 12  1  0
 12 13  1  0
 13 14  1  0
M  CHG  1  14  -1
M  RAD  2   3   2  13   2
M  END
>  <docking_score>  (1) 
-3.04

$$$$

     RDKit          3D

 14 13  0  0  0  0  0  0  0  0999 V2000
   15.7717   -1.6362   -2.8537 O   0  0  0  0  0  0  0  0  0  0  0  0
   14.9522   -1.5509   -3.9740 C   0  0  0  0  0  0  0  0  0  0  0  0
   15.4777   -2.4656   -5.0771 C   0  0  0  0  0  3  0  0  0  0  0  0
   14.5525   -3.6086   -5.1118 N   0  0  0  0  0  0  0  0  0  0  0  0
   15.2683   -4.8007   -5.4157 C   0  0  2  0  0  0  0  0  0  0  0  0
   14.8267   -5.4461   -6.6830 C   0  0  0  0  0  0  0  0  0  0  0  0
   13.4306   -5.3489   -6.7687 O   0  0  0  0  0  0  0  0  0  0  0  0
   15.5085   -5.7373   -4.2977 C   0  0  1  0  0  0  0  0  0  0  0  0
   15.5365   -7.0641   -4.7532 O   0  0  0  0  0  0  0  0  0  0  0  0
   16.7308   -5.5159   -3.4845 C   0  0  2  0  0  0  0  0  0  0  0  0
   16.5038   -4.8674   -2.2770 O   0  0  0  0  0  0  0  0  0  0  0  0
   17.7713   -4.9374   -4.1713 O   0  0  0  0  0  0  0  0  0  0  0  0
   18.7609   -5.8919   -4.4188 C   0  0  0  0  0  3  0  0  0  0  0  0
   18.6885   -6.9020   -3.4381 O   0  0  0  0  0  1  0  0  0  0  0  0
  1  2  1  0
  2  3  1  0
  3  4  1  0
  4  5  1  0
  5  6  1  6
  6  7  1  0
  5  8  1  0
  8  9  1  6
  8 10  1  0
 10 11  1  1
 10 12  1  0
 12 13  1  0
 13 14  1  0
M  CHG  1  14  -1
M  RAD  2   3   2  13   2
M  END
>  <docking_score>  (2) 
-3.0299999999999998

$$$$

     RDKit          3D

 14 13  0  0  0  0  0  0  0  0999 V2000
   12.8160   -0.5481   -4.5845 O   0  0  0  0  0  0  0  0  0  0  0  0
   14.1742   -0.4161   -4.3163 C   0  0  0  0  0  0  0  0  0  0  0  0
   14.9601   -0.3403   -5.6226 C   0  0  0  0  0  3  0  0  0  0  0  0
   14.7106   -1.6196   -6.3044 N   0  0  0  0  0  0  0  0  0  0  0  0
   15.8875   -2.4194   -6.2769 C   0  0  2  0  0  0  0  0  0  0  0  0
   16.7340   -2.2638   -7.4922 C   0  0  0  0  0  0  0  0  0  0  0  0
   15.8976   -2.2421   -8.6171 O   0  0  0  0  0  0  0  0  0  0  0  0
   15.7361   -3.8121   -5.8049 C   0  0  1  0  0  0  0  0  0  0  0  0
   16.7036   -4.6456   -6.3860 O   0  0  0  0  0  0  0  0  0  0  0  0
   15.7753   -4.0337   -4.3374 C   0  0  2  0  0  0  0  0  0  0  0  0
   16.4268   -3.0339   -3.6260 O   0  0  0  0  0  0  0  0  0  0  0  0
   16.2198   -5.2795   -3.9641 O   0  0  0  0  0  0  0  0  0  0  0  0
   16.8013   -5.2117   -2.6956 C   0  0  0  0  0  3  0  0  0  0  0  0
   18.0095   -5.9379   -2.6984 O   0  0  0  0  0  1  0  0  0  0  0  0
  1  2  1  0
  2  3  1  0
  3  4  1  0
  4  5  1  0
  5  6  1  6
  6  7  1  0
  5  8  1  0
  8  9  1  6
  8 10  1  0
 10 11  1  1
 10 12  1  0
 12 13  1  0
 13 14  1  0
M  CHG  1  14  -1
M  RAD  2   3   2  13   2
M  END
>  <docking_score>  (3) 
-2.8969999999999998

$$$$
