
     RDKit          3D

 28 28  0  0  0  0  0  0  0  0999 V2000
   18.1956   -3.5199   -1.9048 C   0  0  0  0  0  0  0  0  0  0  0  0
   18.3515   -2.4233   -2.9653 C   0  0  0  0  0  0  0  0  0  0  0  0
   18.8631   -1.1643   -2.2817 C   0  0  0  0  0  0  0  0  0  0  0  0
   16.9902   -2.1133   -3.5336 C   0  0  0  0  0  0  0  0  0  0  0  0
   17.1770   -1.3593   -4.8197 C   0  0  0  0  0  0  0  0  0  0  0  0
   15.8916   -1.4559   -5.6360 C   0  0  0  0  0  0  0  0  0  0  0  0
   14.8058   -1.8864   -4.6545 C   0  0  1  0  0  0  0  0  0  0  0  0
   13.9307   -0.6901   -4.3878 C   0  0  0  0  0  2  0  0  0  0  0  0
   14.0457   -3.0245   -5.2988 C   0  0  0  0  0  0  0  0  0  0  0  0
   14.8480   -3.7561   -6.3262 C   0  0  0  0  0  0  0  0  0  0  0  0
   15.2743   -5.1311   -5.9020 C   0  0  0  0  0  3  0  0  0  0  0  0
   16.7081   -5.4394   -6.2837 C   0  0  2  0  0  0  0  0  0  0  0  0
   17.5088   -5.4730   -4.9982 C   0  0  0  0  0  2  0  0  0  0  0  0
   17.2631   -4.3089   -7.1198 C   0  0  0  0  0  0  0  0  0  0  0  0
   18.4703   -4.7066   -7.9187 C   0  0  0  0  0  0  0  0  0  0  0  0
   19.7456   -4.6974   -7.1442 C   0  0  2  0  0  0  0  0  0  0  0  0
   20.3603   -6.0429   -6.9554 C   0  0  0  0  0  3  0  0  0  0  0  0
   20.7776   -6.3411   -5.5505 C   0  0  0  0  0  0  0  0  0  0  0  0
   20.2273   -7.6111   -5.0014 C   0  0  0  0  0  0  0  0  0  0  0  0
   20.2616   -8.6780   -5.8786 O   0  0  0  0  0  0  0  0  0  0  0  0
   19.9210   -8.3722   -7.1679 C   0  0  0  0  0  0  0  0  0  0  0  0
   18.8364   -9.0714   -7.6542 O   0  0  0  0  0  0  0  0  0  0  0  0
   17.7426   -9.0700   -6.8147 C   0  0  0  0  0  0  0  0  0  0  0  0
   17.5558   -7.7755   -6.0933 C   0  0  0  0  0  0  0  0  0  0  0  0
   16.7897   -6.7712   -6.9536 C   0  0  2  0  0  0  0  0  0  0  0  0
   17.2956   -6.7293   -8.3586 C   0  0  0  0  0  2  0  0  0  0  0  0
   19.7190   -3.8510   -5.9127 C   0  0  0  0  0  0  0  0  0  0  0  0
   20.8310   -3.0060   -5.9507 O   0  0  0  0  0  1  0  0  0  0  0  0
  1  2  1  0
  2  3  1  0
  2  4  1  0
  4  5  1  0
  5  6  1  0
  6  7  1  0
  7  8  1  6
  7  9  1  0
  9 10  1  0
 10 11  1  0
 11 12  1  0
 12 13  1  1
 12 14  1  0
 14 15  1  0
 15 16  1  0
 16 17  1  0
 17 18  1  0
 18 19  1  0
 19 20  1  0
 20 21  1  0
 21 22  1  0
 22 23  1  0
 23 24  1  0
 24 25  1  0
 25 26  1  6
 16 27  1  1
 27 28  1  0
 25 12  1  0
M  CHG  1  28  -1
M  RAD  5   8   3  11   2  13   3  17   2  26   3
M  END
>  <docking_score>  (1) 
-3.8980000000000001

$$$$

     RDKit          3D

 28 28  0  0  0  0  0  0  0  0999 V2000
   19.7717    5.9005   -4.5574 C   0  0  0  0  0  0  0  0  0  0  0  0
   19.5911    5.6402   -6.0578 C   0  0  0  0  0  0  0  0  0  0  0  0
   18.4754    6.5388   -6.5695 C   0  0  0  0  0  0  0  0  0  0  0  0
   19.1480    4.2114   -6.2433 C   0  0  0  0  0  0  0  0  0  0  0  0
   20.3677    3.3340   -6.2282 C   0  0  0  0  0  0  0  0  0  0  0  0
   20.3096    2.4346   -4.9971 C   0  0  0  0  0  0  0  0  0  0  0  0
   21.3631    1.3539   -5.2203 C   0  0  1  0  0  0  0  0  0  0  0  0
   21.3762    0.4701   -4.0010 C   0  0  0  0  0  2  0  0  0  0  0  0
   20.9740    0.6015   -6.4735 C   0  0  0  0  0  0  0  0  0  0  0  0
   19.8243   -0.3304   -6.2629 C   0  0  0  0  0  0  0  0  0  0  0  0
   20.0420   -1.7048   -6.8250 C   0  0  0  0  0  3  0  0  0  0  0  0
   19.3143   -2.7768   -6.0390 C   0  0  2  0  0  0  0  0  0  0  0  0
   20.0146   -2.8939   -4.7008 C   0  0  0  0  0  2  0  0  0  0  0  0
   19.4699   -4.1088   -6.7365 C   0  0  0  0  0  0  0  0  0  0  0  0
   18.4368   -5.1150   -6.3190 C   0  0  0  0  0  0  0  0  0  0  0  0
   18.7421   -5.8061   -5.0324 C   0  0  2  0  0  0  0  0  0  0  0  0
   17.7934   -5.4922   -3.9254 C   0  0  0  0  0  3  0  0  0  0  0  0
   18.4500   -5.1325   -2.6309 C   0  0  0  0  0  0  0  0  0  0  0  0
   18.0003   -3.8363   -2.0520 C   0  0  0  0  0  0  0  0  0  0  0  0
   16.6369   -3.6219   -2.1150 O   0  0  0  0  0  0  0  0  0  0  0  0
   16.0500   -4.0015   -3.2912 C   0  0  0  0  0  0  0  0  0  0  0  0
   15.4085   -2.9836   -3.9650 O   0  0  0  0  0  0  0  0  0  0  0  0
   16.1637   -1.8389   -4.1081 C   0  0  0  0  0  0  0  0  0  0  0  0
   17.6129   -2.1152   -4.3419 C   0  0  0  0  0  0  0  0  0  0  0  0
   17.8911   -2.3814   -5.8209 C   0  0  2  0  0  0  0  0  0  0  0  0
   16.8894   -3.3099   -6.4260 C   0  0  0  0  0  2  0  0  0  0  0  0
   20.1834   -5.7783   -4.6384 C   0  0  0  0  0  0  0  0  0  0  0  0
   20.7716   -6.9643   -5.0849 O   0  0  0  0  0  1  0  0  0  0  0  0
  1  2  1  0
  2  3  1  0
  2  4  1  0
  4  5  1  0
  5  6  1  0
  6  7  1  0
  7  8  1  1
  7  9  1  0
  9 10  1  0
 10 11  1  0
 11 12  1  0
 12 13  1  1
 12 14  1  0
 14 15  1  0
 15 16  1  0
 16 17  1  0
 17 18  1  0
 18 19  1  0
 19 20  1  0
 20 21  1  0
 21 22  1  0
 22 23  1  0
 23 24  1  0
 24 25  1  0
 25 26  1  1
 16 27  1  1
 27 28  1  0
 25 12  1  0
M  CHG  1  28  -1
M  RAD  5   8   3  11   2  13   3  17   2  26   3
M  END
>  <docking_score>  (2) 
-3.6779999999999999

$$$$

     RDKit          3D

 28 28  0  0  0  0  0  0  0  0999 V2000
    4.6358    8.5447   11.6027 C   0  0  0  0  0  0  0  0  0  0  0  0
    5.4409    9.8097   11.2818 C   0  0  0  0  0  0  0  0  0  0  0  0
    6.4064   10.0675   12.4288 C   0  0  0  0  0  0  0  0  0  0  0  0
    4.4886   10.9763   11.2156 C   0  0  0  0  0  0  0  0  0  0  0  0
    5.2078   12.2003   11.7077 C   0  0  0  0  0  0  0  0  0  0  0  0
    4.6249   13.4254   11.0099 C   0  0  0  0  0  0  0  0  0  0  0  0
    3.4964   12.9040   10.1255 C   0  0  1  0  0  0  0  0  0  0  0  0
    2.2613   13.7062   10.4404 C   0  0  0  0  0  2  0  0  0  0  0  0
    3.9405   13.0695    8.6890 C   0  0  0  0  0  0  0  0  0  0  0  0
    3.4656   11.9663    7.7992 C   0  0  0  0  0  0  0  0  0  0  0  0
    4.4459   10.8402    7.6469 C   0  0  0  0  0  3  0  0  0  0  0  0
    4.6972   10.4799    6.1966 C   0  0  2  0  0  0  0  0  0  0  0  0
    3.4307   10.8112    5.4343 C   0  0  0  0  0  2  0  0  0  0  0  0
    4.9077    8.9878    6.0753 C   0  0  0  0  0  0  0  0  0  0  0  0
    5.6058    8.5941    4.8058 C   0  0  0  0  0  0  0  0  0  0  0  0
    4.7104    8.5173    3.6148 C   0  0  2  0  0  0  0  0  0  0  0  0
    4.9929    9.5391    2.5659 C   0  0  0  0  0  3  0  0  0  0  0  0
    3.7845   10.2669    2.0694 C   0  0  0  0  0  0  0  0  0  0  0  0
    3.8885   11.7508    2.1374 C   0  0  0  0  0  0  0  0  0  0  0  0
    5.1069   12.2598    1.7306 O   0  0  0  0  0  0  0  0  0  0  0  0
    6.1965   11.5512    2.1579 C   0  0  0  0  0  0  0  0  0  0  0  0
    7.0832   12.2744    2.9276 O   0  0  0  0  0  0  0  0  0  0  0  0
    6.4922   12.9841    3.9513 C   0  0  0  0  0  0  0  0  0  0  0  0
    5.3450   12.2640    4.5811 C   0  0  0  0  0  0  0  0  0  0  0  0
    5.8292   11.2872    5.6521 C   0  0  2  0  0  0  0  0  0  0  0  0
    7.0015   10.4824    5.1942 C   0  0  0  0  0  2  0  0  0  0  0  0
    3.2611    8.3454    3.9365 C   0  0  0  0  0  0  0  0  0  0  0  0
    2.8758    7.0730    3.5070 O   0  0  0  0  0  1  0  0  0  0  0  0
  1  2  1  0
  2  3  1  0
  2  4  1  0
  4  5  1  0
  5  6  1  0
  6  7  1  0
  7  8  1  6
  7  9  1  0
  9 10  1  0
 10 11  1  0
 11 12  1  0
 12 13  1  6
 12 14  1  0
 14 15  1  0
 15 16  1  0
 16 17  1  0
 17 18  1  0
 18 19  1  0
 19 20  1  0
 20 21  1  0
 21 22  1  0
 22 23  1  0
 23 24  1  0
 24 25  1  0
 25 26  1  6
 16 27  1  1
 27 28  1  0
 25 12  1  0
M  CHG  1  28  -1
M  RAD  5   8   3  11   2  13   3  17   2  26   3
M  END
>  <docking_score>  (3) 
-3.6019999999999999

$$$$
