
     RDKit          3D

 15 15  0  0  0  0  0  0  0  0999 V2000
   21.3608    7.2592   -1.6874 O   0  0  0  0  0  0  0  0  0  0  0  0
   20.3625    7.8622   -2.1504 C   0  0  0  0  0  0  0  0  0  0  0  0
   19.8477    7.4502   -3.4016 N   0  0  0  0  0  0  0  0  0  0  0  0
   20.5141    6.3509   -4.0677 C   0  0  0  0  0  0  0  0  0  0  0  0
   19.5129    5.7665   -5.0246 C   0  0  0  0  0  0  0  0  0  0  0  0
   19.8442    4.6617   -5.7985 C   0  0  0  0  0  0  0  0  0  0  0  0
   18.9352    4.1151   -6.6794 C   0  0  0  0  0  0  0  0  0  0  0  0
   17.6734    4.6622   -6.8061 C   0  0  0  0  0  0  0  0  0  0  0  0
   16.7593    4.1235   -7.6819 F   0  0  0  0  0  0  0  0  0  0  0  0
   17.3343    5.7466   -6.0533 C   0  0  0  0  0  0  0  0  0  0  0  0
   18.2473    6.2827   -5.1791 C   0  0  0  0  0  0  0  0  0  0  0  0
   19.7588    8.9752   -1.3826 C   0  0  0  0  0  0  0  0  0  0  0  0
   20.8372    9.9769   -0.9931 C   0  0  0  0  0  0  0  0  0  0  0  0
   20.5398   10.3864    0.4374 C   0  0  0  0  0  0  0  0  0  0  0  0
   18.9988    9.6441    0.9008 Cl  0  0  0  0  0  0  0  0  0  0  0  0
  1  2  2  0
  2  3  1  0
  3  4  1  0
  4  5  1  0
  5  6  2  0
  6  7  1  0
  7  8  2  0
  8  9  1  0
  8 10  1  0
 10 11  2  0
  2 12  1  0
 12 13  1  0
 13 14  1  0
 14 15  1  0
 11  5  1  0
M  END
>  <docking_score>  (1) 
-4.6440000000000001

$$$$

     RDKit          3D

 15 15  0  0  0  0  0  0  0  0999 V2000
   15.9353   -1.8140   -2.5557 O   0  0  0  0  0  0  0  0  0  0  0  0
   16.9987   -1.9911   -3.1980 C   0  0  0  0  0  0  0  0  0  0  0  0
   16.9880   -1.7632   -4.5938 N   0  0  0  0  0  0  0  0  0  0  0  0
   15.7394   -1.3373   -5.1905 C   0  0  0  0  0  0  0  0  0  0  0  0
   15.2548   -2.4895   -6.0255 C   0  0  0  0  0  0  0  0  0  0  0  0
   15.4399   -2.4849   -7.4021 C   0  0  0  0  0  0  0  0  0  0  0  0
   15.0012   -3.5356   -8.1796 C   0  0  0  0  0  0  0  0  0  0  0  0
   14.3669   -4.6152   -7.5970 C   0  0  0  0  0  0  0  0  0  0  0  0
   13.9260   -5.6685   -8.3644 F   0  0  0  0  0  0  0  0  0  0  0  0
   14.1781   -4.6334   -6.2474 C   0  0  0  0  0  0  0  0  0  0  0  0
   14.6190   -3.5818   -5.4825 C   0  0  0  0  0  0  0  0  0  0  0  0
   18.2203   -2.4286   -2.4846 C   0  0  0  0  0  0  0  0  0  0  0  0
   17.9605   -3.7551   -1.7839 C   0  0  0  0  0  0  0  0  0  0  0  0
   18.5534   -4.8300   -2.6758 C   0  0  0  0  0  0  0  0  0  0  0  0
   17.2169   -5.6136   -3.5362 Cl  0  0  0  0  0  0  0  0  0  0  0  0
  1  2  2  0
  2  3  1  0
  3  4  1  0
  4  5  1  0
  5  6  2  0
  6  7  1  0
  7  8  2  0
  8  9  1  0
  8 10  1  0
 10 11  2  0
  2 12  1  0
 12 13  1  0
 13 14  1  0
 14 15  1  0
 11  5  1  0
M  END
>  <docking_score>  (2) 
-4.056

$$$$

     RDKit          3D

 15 15  0  0  0  0  0  0  0  0999 V2000
   16.3364   -3.6407   -1.8364 O   0  0  0  0  0  0  0  0  0  0  0  0
   16.5837   -3.2334   -2.9972 C   0  0  0  0  0  0  0  0  0  0  0  0
   17.6459   -3.8365   -3.7103 N   0  0  0  0  0  0  0  0  0  0  0  0
   18.3810   -4.8919   -3.0454 C   0  0  0  0  0  0  0  0  0  0  0  0
   18.1710   -6.1346   -3.8646 C   0  0  0  0  0  0  0  0  0  0  0  0
   19.1224   -7.1466   -3.8603 C   0  0  0  0  0  0  0  0  0  0  0  0
   18.9420   -8.2920   -4.6063 C   0  0  0  0  0  0  0  0  0  0  0  0
   17.8050   -8.4508   -5.3740 C   0  0  0  0  0  0  0  0  0  0  0  0
   17.6158   -9.5903   -6.1213 F   0  0  0  0  0  0  0  0  0  0  0  0
   16.8629   -7.4659   -5.3882 C   0  0  0  0  0  0  0  0  0  0  0  0
   17.0527   -6.3294   -4.6415 C   0  0  0  0  0  0  0  0  0  0  0  0
   15.7660   -2.1455   -3.5810 C   0  0  0  0  0  0  0  0  0  0  0  0
   14.8767   -2.7043   -4.6833 C   0  0  0  0  0  0  0  0  0  0  0  0
   15.2696   -1.9769   -5.9556 C   0  0  0  0  0  0  0  0  0  0  0  0
   14.9646   -0.2494   -5.7045 Cl  0  0  0  0  0  0  0  0  0  0  0  0
  1  2  2  0
  2  3  1  0
  3  4  1  0
  4  5  1  0
  5  6  2  0
  6  7  1  0
  7  8  2  0
  8  9  1  0
  8 10  1  0
 10 11  2  0
  2 12  1  0
 12 13  1  0
 13 14  1  0
 14 15  1  0
 11  5  1  0
M  END
>  <docking_score>  (3) 
-3.948

$$$$
