
     RDKit          3D

 18 17  0  0  0  0  0  0  0  0999 V2000
   18.2072   -7.1916   -4.7198 C   0  0  0  0  0  0  0  0  0  0  0  0
   19.3986   -6.2679   -4.6348 C   0  0  0  0  0  0  0  0  0  0  0  0
   20.4612   -6.9261   -3.7821 C   0  0  0  0  0  0  0  0  0  0  0  0
   19.0475   -4.9468   -4.0109 C   0  0  0  0  0  0  0  0  0  0  0  0
   19.3712   -4.8881   -2.5442 C   0  0  0  0  0  0  0  0  0  0  0  0
   18.5872   -3.8188   -1.8231 C   0  0  0  0  0  0  0  0  0  0  0  0
   17.2326   -3.6684   -2.4861 C   0  0  1  0  0  0  0  0  0  0  0  0
   16.3470   -4.7721   -1.9274 C   0  0  0  0  0  0  0  0  0  0  0  0
   16.6877   -2.3088   -2.0885 C   0  0  0  0  0  3  0  0  0  0  0  0
   15.7921   -1.7453   -3.1716 C   0  0  0  0  0  0  0  0  0  0  0  0
   16.2033   -2.2527   -4.5424 C   0  0  0  0  0  0  0  0  0  0  0  0
   14.9691   -2.2869   -5.4019 C   0  0  2  0  0  0  0  0  0  0  0  0
   13.9833   -1.2519   -4.9668 C   0  0  0  0  0  0  0  0  0  0  0  0
   14.3275   -3.6509   -5.2857 C   0  0  0  0  0  3  0  0  0  0  0  0
   15.3010   -4.7684   -5.5132 C   0  0  0  0  0  0  0  0  0  0  0  0
   14.9634   -5.3744   -6.8497 C   0  0  0  0  0  0  0  0  0  0  0  0
   15.9682   -6.1369   -7.5334 N   0  0  0  0  0  1  0  0  0  0  0  0
   13.7970   -5.2049   -7.3558 N   0  0  0  0  0  2  0  0  0  0  0  0
  1  2  1  0
  2  3  1  0
  2  4  1  0
  4  5  1  0
  5  6  1  0
  6  7  1  0
  7  8  1  1
  7  9  1  0
  9 10  1  0
 10 11  1  0
 11 12  1  0
 12 13  1  1
 12 14  1  0
 14 15  1  0
 15 16  1  0
 16 17  1  0
 16 18  2  0
M  CHG  2  17   1  18  -1
M  RAD  3   9   2  14   2  17   2
M  END
>  <docking_score>  (1) 
-3.6840000000000002

$$$$

     RDKit          3D

 18 17  0  0  0  0  0  0  0  0999 V2000
   16.6606   -1.1349   -5.7013 C   0  0  0  0  0  0  0  0  0  0  0  0
   15.9244   -2.1395   -4.8476 C   0  0  0  0  0  0  0  0  0  0  0  0
   14.6528   -2.5419   -5.5622 C   0  0  0  0  0  0  0  0  0  0  0  0
   15.5509   -1.5764   -3.5055 C   0  0  0  0  0  0  0  0  0  0  0  0
   16.3453   -2.1749   -2.3785 C   0  0  0  0  0  0  0  0  0  0  0  0
   17.7297   -1.5834   -2.2714 C   0  0  0  0  0  0  0  0  0  0  0  0
   18.7433   -2.7085   -2.2063 C   0  0  1  0  0  0  0  0  0  0  0  0
   17.9545   -3.9996   -2.0469 C   0  0  0  0  0  0  0  0  0  0  0  0
   19.4930   -2.7129   -3.5259 C   0  0  0  0  0  3  0  0  0  0  0  0
   19.3526   -4.0485   -4.2252 C   0  0  0  0  0  0  0  0  0  0  0  0
   19.3412   -3.8791   -5.7341 C   0  0  0  0  0  0  0  0  0  0  0  0
   18.5130   -4.9955   -6.3092 C   0  0  2  0  0  0  0  0  0  0  0  0
   17.4649   -4.4655   -7.2327 C   0  0  0  0  0  0  0  0  0  0  0  0
   17.8368   -5.7378   -5.1789 C   0  0  0  0  0  3  0  0  0  0  0  0
   16.3413   -5.7131   -5.2849 C   0  0  0  0  0  0  0  0  0  0  0  0
   15.8655   -7.1234   -5.0571 C   0  0  0  0  0  0  0  0  0  0  0  0
   16.7293   -8.2090   -5.4230 N   0  0  0  0  0  1  0  0  0  0  0  0
   14.7087   -7.3364   -4.5454 N   0  0  0  0  0  2  0  0  0  0  0  0
  1  2  1  0
  2  3  1  0
  2  4  1  0
  4  5  1  0
  5  6  1  0
  6  7  1  0
  7  8  1  6
  7  9  1  0
  9 10  1  0
 10 11  1  0
 11 12  1  0
 12 13  1  6
 12 14  1  0
 14 15  1  0
 15 16  1  0
 16 17  1  0
 16 18  2  0
M  CHG  2  17   1  18  -1
M  RAD  3   9   2  14   2  17   2
M  END
>  <docking_score>  (2) 
-3.5760000000000001

$$$$

     RDKit          3D

 18 17  0  0  0  0  0  0  0  0999 V2000
   13.0921   -0.7770   -4.5947 C   0  0  0  0  0  0  0  0  0  0  0  0
   14.5977   -0.7522   -4.4819 C   0  0  0  0  0  0  0  0  0  0  0  0
   15.1641   -0.0817   -5.7144 C   0  0  0  0  0  0  0  0  0  0  0  0
   15.1813   -2.1336   -4.3885 C   0  0  0  0  0  0  0  0  0  0  0  0
   15.8814   -2.5592   -5.6488 C   0  0  0  0  0  0  0  0  0  0  0  0
   14.9958   -3.3856   -6.5492 C   0  0  0  0  0  0  0  0  0  0  0  0
   14.5571   -4.6298   -5.8030 C   0  0  1  0  0  0  0  0  0  0  0  0
   13.4886   -5.2976   -6.6557 C   0  0  0  0  0  0  0  0  0  0  0  0
   15.7714   -5.5324   -5.6842 C   0  0  0  0  0  3  0  0  0  0  0  0
   15.9200   -6.0589   -4.2723 C   0  0  0  0  0  0  0  0  0  0  0  0
   17.3797   -6.2915   -3.9244 C   0  0  0  0  0  0  0  0  0  0  0  0
   17.6882   -5.4778   -2.6973 C   0  0  2  0  0  0  0  0  0  0  0  0
   16.4585   -4.8109   -2.1724 C   0  0  0  0  0  0  0  0  0  0  0  0
   18.7039   -4.4164   -3.0545 C   0  0  0  0  0  3  0  0  0  0  0  0
   19.1426   -3.6138   -1.8663 C   0  0  0  0  0  0  0  0  0  0  0  0
   19.3562   -2.2035   -2.3487 C   0  0  0  0  0  0  0  0  0  0  0  0
   20.4328   -1.9435   -3.2607 N   0  0  0  0  0  1  0  0  0  0  0  0
   18.5840   -1.2623   -1.9446 N   0  0  0  0  0  2  0  0  0  0  0  0
  1  2  1  0
  2  3  1  0
  2  4  1  0
  4  5  1  0
  5  6  1  0
  6  7  1  0
  7  8  1  6
  7  9  1  0
  9 10  1  0
 10 11  1  0
 11 12  1  0
 12 13  1  6
 12 14  1  0
 14 15  1  0
 15 16  1  0
 16 17  1  0
 16 18  2  0
M  CHG  2  17   1  18  -1
M  RAD  3   9   2  14   2  17   2
M  END
>  <docking_score>  (3) 
-3.5680000000000001

$$$$
