
     RDKit          3D

 27 26  0  0  0  0  0  0  0  0999 V2000
   15.7880   -5.7021   -4.6435 C   0  0  0  0  0  0  0  0  0  0  0  0
   16.8354   -6.7644   -4.4046 C   0  0  0  0  0  3  0  0  0  0  0  0
   16.5201   -7.9459   -5.2966 C   0  0  0  0  0  0  0  0  0  0  0  0
   17.8138   -8.5706   -5.7338 C   0  0  2  0  0  0  0  0  0  0  0  0
   18.9043   -8.0903   -5.0133 O   0  0  0  0  0  0  0  0  0  0  0  0
   18.0269   -8.3751   -7.2212 C   0  0  2  0  0  0  0  0  0  0  0  0
   18.5877   -9.4778   -7.8165 O   0  0  0  0  0  0  0  0  0  0  0  0
   18.8122   -7.1485   -7.5285 C   0  0  1  0  0  0  0  0  0  0  0  0
   20.0139   -7.3618   -8.1565 O   0  0  0  0  0  0  0  0  0  0  0  0
   17.9886   -6.0416   -8.1653 C   0  0  0  0  0  3  0  0  0  0  0  0
   18.6670   -4.7382   -7.7628 C   0  0  2  0  0  0  0  0  0  0  0  0
   18.9559   -4.7946   -6.3029 C   0  0  0  0  0  3  0  0  0  0  0  0
   20.3506   -4.4178   -5.9310 C   0  0  0  0  0  0  0  0  0  0  0  0
   20.4155   -3.5059   -4.7748 C   0  0  1  0  0  0  0  0  0  0  0  0
   20.6684   -2.0803   -5.0159 C   0  0  0  0  0  1  0  0  0  0  0  0
   19.2143   -3.8477   -3.5297 S   0  0  0  0  0  0  0  0  0  0  0  0
   18.7570   -2.4376   -2.5277 C   0  0  0  0  0  0  0  0  0  0  0  0
   19.7680   -1.9289   -1.7665 O   0  0  0  0  0  0  0  0  0  0  0  0
   20.5240   -2.8490   -1.0828 C   0  0  0  0  0  2  0  0  0  0  0  0
   17.7914   -3.6069   -8.1926 C   0  0  0  0  0  0  0  0  0  0  0  0
   17.4189   -2.8305   -6.9163 C   0  0  0  0  0  3  0  0  0  0  0  0
   17.2923   -1.7884   -6.2816 S   0  0  2  0  0  0  0  0  0  0  0  0
   17.4296   -0.6460   -5.2725 O   0  0  0  0  0  0  0  0  0  0  0  0
   15.0980   -1.3741   -6.5464 C   0  0  0  0  0  3  0  0  0  0  0  0
   14.8365   -2.2816   -5.3789 C   0  0  0  0  0  3  0  0  0  0  0  0
   14.4173   -1.4913   -4.3061 O   0  0  0  0  0  0  0  0  0  0  0  0
   13.7701   -0.4222   -4.7441 O   0  0  0  0  0  0  0  0  0  0  0  0
  1  2  1  0
  2  3  1  0
  3  4  1  0
  4  5  1  1
  4  6  1  0
  6  7  1  1
  6  8  1  0
  8  9  1  6
  8 10  1  0
 11 10  1  1
 11 12  1  0
 12 13  1  0
 13 14  1  0
 14 15  1  6
 14 16  1  0
 16 17  1  0
 17 18  1  0
 18 19  1  0
 11 20  1  0
 20 21  1  0
 21 22  1  0
 22 23  1  0
 22 24  1  0
 24 25  1  0
 25 26  1  0
 26 27  1  0
M  RAD  8   2   2  10   2  12   2  15   2  19   3  21   2  24   2  25   2
M  END
>  <docking_score>  (1) 
-2.621

$$$$

     RDKit          3D

 27 26  0  0  0  0  0  0  0  0999 V2000
   16.3149   -4.4664   -2.1442 C   0  0  0  0  0  0  0  0  0  0  0  0
   17.5089   -3.8192   -1.4823 C   0  0  0  0  0  3  0  0  0  0  0  0
   18.2310   -2.9888   -2.5214 C   0  0  0  0  0  0  0  0  0  0  0  0
   19.6846   -2.9216   -2.1507 C   0  0  2  0  0  0  0  0  0  0  0  0
   20.4318   -2.1866   -3.0675 O   0  0  0  0  0  0  0  0  0  0  0  0
   20.2596   -4.3137   -1.9851 C   0  0  2  0  0  0  0  0  0  0  0  0
   21.3646   -4.3274   -1.1704 O   0  0  0  0  0  0  0  0  0  0  0  0
   20.5532   -4.9685   -3.2892 C   0  0  1  0  0  0  0  0  0  0  0  0
   20.6608   -6.3362   -3.2494 O   0  0  0  0  0  0  0  0  0  0  0  0
   19.6864   -4.4662   -4.4318 C   0  0  0  0  0  3  0  0  0  0  0  0
   20.6521   -4.0898   -5.5483 C   0  0  2  0  0  0  0  0  0  0  0  0
   20.4027   -2.6696   -5.9213 C   0  0  0  0  0  3  0  0  0  0  0  0
   19.0644   -2.4130   -6.5285 C   0  0  0  0  0  0  0  0  0  0  0  0
   18.2875   -1.3894   -5.8068 C   0  0  1  0  0  0  0  0  0  0  0  0
   18.9078   -0.0836   -5.5531 C   0  0  0  0  0  1  0  0  0  0  0  0
   16.5872   -1.3273   -6.2707 S   0  0  0  0  0  0  0  0  0  0  0  0
   16.2152   -2.0941   -7.8440 C   0  0  0  0  0  0  0  0  0  0  0  0
   14.9307   -2.5343   -7.9726 O   0  0  0  0  0  0  0  0  0  0  0  0
   14.7804   -3.8070   -8.4656 C   0  0  0  0  0  2  0  0  0  0  0  0
   20.4854   -5.0754   -6.6583 C   0  0  0  0  0  0  0  0  0  0  0  0
   19.2443   -5.9190   -6.3140 C   0  0  0  0  0  3  0  0  0  0  0  0
   18.7124   -6.9224   -5.8502 S   0  0  2  0  0  0  0  0  0  0  0  0
   18.4176   -8.3225   -5.3072 O   0  0  0  0  0  0  0  0  0  0  0  0
   16.6225   -6.7270   -6.6570 C   0  0  0  0  0  3  0  0  0  0  0  0
   16.2676   -5.9621   -5.4144 C   0  0  0  0  0  3  0  0  0  0  0  0
   15.0191   -6.4098   -4.9763 O   0  0  0  0  0  0  0  0  0  0  0  0
   15.0524   -7.7118   -4.7368 O   0  0  0  0  0  0  0  0  0  0  0  0
  1  2  1  0
  2  3  1  0
  3  4  1  0
  4  5  1  6
  4  6  1  0
  6  7  1  1
  6  8  1  0
  8  9  1  1
  8 10  1  0
 11 10  1  1
 11 12  1  0
 12 13  1  0
 13 14  1  0
 14 15  1  6
 14 16  1  0
 16 17  1  0
 17 18  1  0
 18 19  1  0
 11 20  1  0
 20 21  1  0
 21 22  1  0
 22 23  1  0
 22 24  1  0
 24 25  1  0
 25 26  1  0
 26 27  1  0
M  RAD  8   2   2  10   2  12   2  15   2  19   3  21   2  24   2  25   2
M  END
>  <docking_score>  (2) 
-1.4299999999999999

$$$$

     RDKit          3D

 27 26  0  0  0  0  0  0  0  0999 V2000
   17.0953   -3.5844   -0.2577 C   0  0  0  0  0  0  0  0  0  0  0  0
   16.5934   -3.9128   -1.6444 C   0  0  0  0  0  3  0  0  0  0  0  0
   17.7657   -3.8408   -2.5990 C   0  0  0  0  0  0  0  0  0  0  0  0
   18.3358   -2.4525   -2.5488 C   0  0  2  0  0  0  0  0  0  0  0  0
   17.3587   -1.4725   -2.7032 O   0  0  0  0  0  0  0  0  0  0  0  0
   19.4298   -2.2854   -3.5838 C   0  0  2  0  0  0  0  0  0  0  0  0
   19.1946   -1.2253   -4.4239 O   0  0  0  0  0  0  0  0  0  0  0  0
   19.6777   -3.5321   -4.3583 C   0  0  1  0  0  0  0  0  0  0  0  0
   20.4916   -4.4524   -3.7465 O   0  0  0  0  0  0  0  0  0  0  0  0
   18.4179   -4.1421   -4.9500 C   0  0  0  0  0  3  0  0  0  0  0  0
   18.8804   -4.9685   -6.1434 C   0  0  2  0  0  0  0  0  0  0  0  0
   20.1070   -5.7143   -5.7467 C   0  0  0  0  0  3  0  0  0  0  0  0
   20.9437   -6.1852   -6.8884 C   0  0  0  0  0  0  0  0  0  0  0  0
   20.9030   -7.6471   -7.0722 C   0  0  1  0  0  0  0  0  0  0  0  0
   21.3813   -8.5071   -5.9832 C   0  0  0  0  0  1  0  0  0  0  0  0
   19.4503   -8.2219   -7.8902 S   0  0  0  0  0  0  0  0  0  0  0  0
   18.1099   -8.6785   -6.7964 C   0  0  0  0  0  0  0  0  0  0  0  0
   17.1462   -7.7247   -6.6489 O   0  0  0  0  0  0  0  0  0  0  0  0
   16.7103   -7.5074   -5.3650 C   0  0  0  0  0  2  0  0  0  0  0  0
   19.0467   -4.0488   -7.3087 C   0  0  0  0  0  0  0  0  0  0  0  0
   17.6575   -3.9058   -7.9570 C   0  0  0  0  0  3  0  0  0  0  0  0
   16.5200   -4.3080   -8.1787 S   0  0  2  0  0  0  0  0  0  0  0  0
   15.2960   -5.0862   -8.6670 O   0  0  0  0  0  0  0  0  0  0  0  0
   15.3533   -2.3865   -8.1209 C   0  0  0  0  0  3  0  0  0  0  0  0
   15.6857   -2.2865   -6.6599 C   0  0  0  0  0  3  0  0  0  0  0  0
   14.5724   -1.7593   -6.0012 O   0  0  0  0  0  0  0  0  0  0  0  0
   14.7851   -1.7163   -4.6949 O   0  0  0  0  0  0  0  0  0  0  0  0
  1  2  1  0
  2  3  1  0
  3  4  1  0
  4  5  1  6
  4  6  1  0
  6  7  1  6
  6  8  1  0
  8  9  1  1
  8 10  1  0
 11 10  1  1
 11 12  1  0
 12 13  1  0
 13 14  1  0
 14 15  1  1
 14 16  1  0
 16 17  1  0
 17 18  1  0
 18 19  1  0
 11 20  1  0
 20 21  1  0
 21 22  1  0
 22 23  1  0
 22 24  1  0
 24 25  1  0
 25 26  1  0
 26 27  1  0
M  RAD  8   2   2  10   2  12   2  15   2  19   3  21   2  24   2  25   2
M  END
>  <docking_score>  (3) 
-0.21099999999999999

$$$$
