
     RDKit          3D

 29 30  0  0  0  0  0  0  0  0999 V2000
    9.7110   13.9062    3.4658 C   0  0  0  0  0  0  0  0  0  0  0  0
    8.2108   13.8420    3.3247 C   0  0  0  0  0  0  0  0  0  0  0  0
    7.7541   14.2881    1.9540 C   0  0  0  0  0  0  0  0  0  0  0  0
    7.6991   12.4690    3.6842 C   0  0  0  0  0  0  0  0  0  0  0  0
    6.2141   12.5558    3.9036 C   0  0  0  0  0  0  0  0  0  0  0  0
    5.8743   13.3698    5.1193 C   0  0  0  0  0  0  0  0  0  0  0  0
    4.7479   14.3067    4.7761 C   0  0  1  0  0  0  0  0  0  0  0  0
    3.7053   13.5976    3.9290 C   0  0  0  0  0  0  0  0  0  0  0  0
    4.1218   14.8011    6.0618 C   0  0  0  0  0  3  0  0  0  0  0  0
    4.1987   13.7296    7.1184 C   0  0  0  0  0  0  0  0  0  0  0  0
    5.4538   13.9671    7.9320 C   0  0  0  0  0  0  0  0  0  0  0  0
    5.2888   13.2026    9.2282 C   0  0  1  0  0  0  0  0  0  0  0  0
    5.1180   14.1685   10.3534 C   0  0  0  0  0  0  0  0  0  0  0  0
    4.1715   12.2239    9.0737 C   0  0  0  0  0  3  0  0  0  0  0  0
    4.0095   11.3026   10.2369 C   0  0  0  0  0  0  0  0  0  0  0  0
    3.3353    9.9888    9.8488 C   0  0  2  0  0  0  0  0  0  0  0  0
    4.3703    8.8972   10.1513 C   0  0  0  0  0  0  0  0  0  0  0  0
    3.2336   10.0236    8.3182 C   0  0  0  0  0  0  0  0  0  0  0  0
    3.5303    8.6129    7.8523 C   0  0  0  0  0  0  0  0  0  0  0  0
    3.9656    8.6306    6.4229 C   0  0  2  0  0  0  0  0  0  0  0  0
    5.2058    8.0167    6.2746 O   0  0  0  0  0  0  0  0  0  0  0  0
    4.6091    9.9486    5.9879 C   0  0  0  0  0  0  0  0  0  0  0  0
    2.9571    8.1829    5.4158 C   0  0  0  0  0  0  0  0  0  0  0  0
    2.2582    9.3058    4.9527 O   0  0  0  0  0  0  0  0  0  0  0  0
    3.0654   10.0864    4.2104 N   0  0  0  0  0  0  0  0  0  0  0  0
    3.9124    9.3358    3.3151 C   0  0  0  0  0  0  0  0  0  0  0  0
    4.8708    8.4342    3.9998 C   0  0  0  0  0  0  0  0  0  0  0  0
    5.4668    8.9586    5.2525 C   0  0  2  0  0  0  0  0  0  0  0  0
    6.9282    9.3066    5.2214 C   0  0  0  0  0  0  0  0  0  0  0  0
  1  2  1  0
  2  3  1  0
  2  4  1  0
  4  5  1  0
  5  6  1  0
  6  7  1  0
  7  8  1  6
  7  9  1  0
  9 10  1  0
 10 11  1  0
 11 12  1  0
 12 13  1  1
 12 14  1  0
 14 15  1  0
 15 16  1  0
 16 17  1  6
 16 18  1  0
 18 19  1  0
 20 19  1  1
 20 21  1  0
 20 22  1  0
 20 23  1  0
 23 24  1  0
 24 25  1  0
 25 26  1  0
 26 27  1  0
 27 28  1  0
 28 29  1  6
 28 21  1  0
 28 22  1  0
M  RAD  2   9   2  14   2
M  END
>  <docking_score>  (1) 
-2.988

$$$$

     RDKit          3D

 29 30  0  0  0  0  0  0  0  0999 V2000
   16.2615   -3.6438   -0.7432 C   0  0  0  0  0  0  0  0  0  0  0  0
   17.0130   -4.0786   -1.9764 C   0  0  0  0  0  0  0  0  0  0  0  0
   16.3121   -5.2103   -2.6937 C   0  0  0  0  0  0  0  0  0  0  0  0
   17.2813   -2.9012   -2.8809 C   0  0  0  0  0  0  0  0  0  0  0  0
   16.0723   -2.0073   -2.8714 C   0  0  0  0  0  0  0  0  0  0  0  0
   15.6764   -1.5861   -4.2577 C   0  0  0  0  0  0  0  0  0  0  0  0
   14.2204   -1.2059   -4.2516 C   0  0  1  0  0  0  0  0  0  0  0  0
   14.0575    0.2806   -4.5184 C   0  0  0  0  0  0  0  0  0  0  0  0
   13.5078   -2.0052   -5.3207 C   0  0  0  0  0  3  0  0  0  0  0  0
   14.2430   -3.2954   -5.5763 C   0  0  0  0  0  0  0  0  0  0  0  0
   13.2323   -4.4227   -5.5390 C   0  0  0  0  0  0  0  0  0  0  0  0
   13.8250   -5.5710   -6.3275 C   0  0  1  0  0  0  0  0  0  0  0  0
   13.4535   -5.4266   -7.7659 C   0  0  0  0  0  0  0  0  0  0  0  0
   15.2944   -5.6288   -6.0674 C   0  0  0  0  0  3  0  0  0  0  0  0
   16.1278   -5.0981   -7.1864 C   0  0  0  0  0  0  0  0  0  0  0  0
   17.5882   -5.5306   -7.0797 C   0  0  2  0  0  0  0  0  0  0  0  0
   17.5849   -7.0403   -7.3532 C   0  0  0  0  0  0  0  0  0  0  0  0
   17.9409   -5.3993   -5.5922 C   0  0  0  0  0  0  0  0  0  0  0  0
   19.4480   -5.5302   -5.5118 C   0  0  0  0  0  0  0  0  0  0  0  0
   20.0917   -4.2347   -5.8864 C   0  0  2  0  0  0  0  0  0  0  0  0
   20.6886   -3.6392   -4.7791 O   0  0  0  0  0  0  0  0  0  0  0  0
   19.1192   -3.0553   -5.9481 C   0  0  0  0  0  0  0  0  0  0  0  0
   20.9688   -4.2539   -7.0955 C   0  0  0  0  0  0  0  0  0  0  0  0
   20.1990   -3.9028   -8.2125 O   0  0  0  0  0  0  0  0  0  0  0  0
   19.8431   -2.6063   -8.1472 N   0  0  0  0  0  0  0  0  0  0  0  0
   20.9133   -1.7470   -7.7015 C   0  0  0  0  0  0  0  0  0  0  0  0
   21.3811   -2.0263   -6.3218 C   0  0  0  0  0  0  0  0  0  0  0  0
   20.3269   -2.3952   -5.3461 C   0  0  2  0  0  0  0  0  0  0  0  0
   20.0150   -1.3980   -4.2661 C   0  0  0  0  0  0  0  0  0  0  0  0
  1  2  1  0
  2  3  1  0
  2  4  1  0
  4  5  1  0
  5  6  1  0
  6  7  1  0
  7  8  1  6
  7  9  1  0
  9 10  1  0
 10 11  1  0
 11 12  1  0
 12 13  1  6
 12 14  1  0
 14 15  1  0
 15 16  1  0
 16 17  1  1
 16 18  1  0
 18 19  1  0
 20 19  1  1
 20 21  1  0
 20 22  1  0
 20 23  1  0
 23 24  1  0
 24 25  1  0
 25 26  1  0
 26 27  1  0
 27 28  1  0
 28 29  1  1
 28 21  1  0
 28 22  1  0
M  RAD  2   9   2  14   2
M  END
>  <docking_score>  (2) 
-2.96

$$$$

     RDKit          3D

 29 30  0  0  0  0  0  0  0  0999 V2000
   10.5837   15.6095    3.7674 C   0  0  0  0  0  0  0  0  0  0  0  0
    9.9291   14.4024    3.1436 C   0  0  0  0  0  0  0  0  0  0  0  0
    9.2439   13.5361    4.1763 C   0  0  0  0  0  0  0  0  0  0  0  0
    8.9996   14.8153    2.0293 C   0  0  0  0  0  0  0  0  0  0  0  0
    7.6991   14.0791    2.1955 C   0  0  0  0  0  0  0  0  0  0  0  0
    7.2941   13.3665    0.9369 C   0  0  0  0  0  0  0  0  0  0  0  0
    6.3894   12.2198    1.2987 C   0  0  1  0  0  0  0  0  0  0  0  0
    6.8280   10.9512    0.5876 C   0  0  0  0  0  0  0  0  0  0  0  0
    6.4410   12.0179    2.7974 C   0  0  0  0  0  3  0  0  0  0  0  0
    5.0567   12.1322    3.3814 C   0  0  0  0  0  0  0  0  0  0  0  0
    4.6182   10.7488    3.8146 C   0  0  0  0  0  0  0  0  0  0  0  0
    5.2562   10.4872    5.1623 C   0  0  1  0  0  0  0  0  0  0  0  0
    6.6646   10.0349    4.9630 C   0  0  0  0  0  0  0  0  0  0  0  0
    5.1087   11.7064    6.0120 C   0  0  0  0  0  3  0  0  0  0  0  0
    3.6910   12.0949    6.2712 C   0  0  0  0  0  0  0  0  0  0  0  0
    3.0845   11.3322    7.4466 C   0  0  2  0  0  0  0  0  0  0  0  0
    2.3319   12.3864    8.2691 C   0  0  0  0  0  0  0  0  0  0  0  0
    4.2766   10.9249    8.3224 C   0  0  0  0  0  0  0  0  0  0  0  0
    4.1085   11.6788    9.6256 C   0  0  0  0  0  0  0  0  0  0  0  0
    4.0012   10.7135   10.7612 C   0  0  2  0  0  0  0  0  0  0  0  0
    3.5012   11.3400   11.8990 O   0  0  0  0  0  0  0  0  0  0  0  0
    5.3165   10.4894   11.5098 C   0  0  0  0  0  0  0  0  0  0  0  0
    3.3395    9.4078   10.4629 C   0  0  0  0  0  0  0  0  0  0  0  0
    4.3245    8.4797   10.0996 O   0  0  0  0  0  0  0  0  0  0  0  0
    5.0890    8.1679   11.1627 N   0  0  0  0  0  0  0  0  0  0  0  0
    4.3267    7.9838   12.3740 C   0  0  0  0  0  0  0  0  0  0  0  0
    3.6123    9.2004   12.8321 C   0  0  0  0  0  0  0  0  0  0  0  0
    4.3375   10.4810   12.6491 C   0  0  2  0  0  0  0  0  0  0  0  0
    4.8238   11.1753   13.8898 C   0  0  0  0  0  0  0  0  0  0  0  0
  1  2  1  0
  2  3  1  0
  2  4  1  0
  4  5  1  0
  5  6  1  0
  6  7  1  0
  7  8  1  6
  7  9  1  0
  9 10  1  0
 10 11  1  0
 11 12  1  0
 12 13  1  6
 12 14  1  0
 14 15  1  0
 15 16  1  0
 16 17  1  1
 16 18  1  0
 18 19  1  0
 20 19  1  6
 20 21  1  0
 20 22  1  0
 20 23  1  0
 23 24  1  0
 24 25  1  0
 25 26  1  0
 26 27  1  0
 27 28  1  0
 28 29  1  1
 28 21  1  0
 28 22  1  0
M  RAD  2   9   2  14   2
M  END
>  <docking_score>  (3) 
-2.6869999999999998

$$$$
