
     RDKit          3D

 27 28  0  0  0  0  0  0  0  0999 V2000
    5.3445    9.1191    2.2822 C   0  0  0  0  0  0  0  0  0  0  0  0
    5.9528   10.4477    2.5442 C   0  0  0  0  0  0  0  0  0  0  0  0
    5.7825   11.0378    3.6989 C   0  0  0  0  0  0  0  0  0  0  0  0
    4.9868   10.3889    4.7449 C   0  0  0  0  0  0  0  0  0  0  0  0
    4.8605   10.7540    5.9247 C   0  0  0  0  0  0  0  0  0  0  0  0
    4.3666   10.6425    7.2032 C   0  0  0  0  0  0  0  0  0  0  0  0
    3.7623    9.4733    7.9278 C   0  0  0  0  0  0  0  0  0  0  0  0
    4.4120   11.7531    7.9902 C   0  0  0  0  0  0  0  0  0  0  0  0
    3.9260   11.7681    9.3514 C   0  0  0  0  0  0  0  0  0  0  0  0
    4.7040   11.8716   10.3902 C   0  0  0  0  0  0  0  0  0  0  0  0
    4.1998   11.8864   11.7803 C   0  0  0  0  0  0  0  0  0  0  0  0
    2.8062   12.3077   11.9657 C   0  0  0  0  0  0  0  0  0  0  0  0
    4.9074   11.5574   12.7922 C   0  0  0  0  0  0  0  0  0  0  0  0
    4.6292   11.5025   14.1633 C   0  0  0  0  0  0  0  0  0  0  0  0
    4.3229   10.3200   14.6065 O   0  0  0  0  0  0  0  0  0  0  0  0
    4.6313   12.5278   15.1270 N   0  0  0  0  0  0  0  0  0  0  0  0
    5.2297   13.7503   14.9163 C   0  0  0  0  0  0  0  0  0  0  0  0
    5.0824   14.5260   15.9831 N   0  0  0  0  0  0  0  0  0  0  0  0
    4.3944   13.8308   16.8950 C   0  0  0  0  0  0  0  0  0  0  0  0
    4.1481   12.6384   16.3318 N   0  0  0  0  0  0  0  0  0  0  0  0
    6.3710   12.3477    3.9800 C   0  0  0  0  0  0  0  0  0  0  0  0
    5.5944   13.4436    3.2820 C   0  0  0  0  0  0  0  0  0  0  0  0
    7.8119   12.4761    3.5108 C   0  0  0  0  0  0  0  0  0  0  0  0
    6.4131   12.5934    5.4916 C   0  0  0  0  0  0  0  0  0  0  0  0
    5.1208   13.1807    5.9483 C   0  0  0  0  0  0  0  0  0  0  0  0
    4.9733   12.9785    7.4343 C   0  0  0  0  0  0  0  0  0  0  0  0
    5.3635   13.9313    8.1743 O   0  0  0  0  0  0  0  0  0  0  0  0
  1  2  1  0
  2  3  2  0
  3  4  1  0
  4  5  2  0
  5  6  1  0
  6  7  1  0
  6  8  2  0
  8  9  1  0
  9 10  2  0
 10 11  1  0
 11 12  1  0
 11 13  2  0
 13 14  1  0
 14 15  2  0
 14 16  1  0
 16 17  1  0
 17 18  2  0
 18 19  1  0
 19 20  2  0
  3 21  1  0
 21 22  1  0
 21 23  1  0
 21 24  1  0
 24 25  1  0
 25 26  1  0
 26 27  2  0
 26  8  1  0
 20 16  1  0
M  END
>  <docking_score>  (1) 
-3.9889999999999999

$$$$

     RDKit          3D

 27 28  0  0  0  0  0  0  0  0999 V2000
    6.8222   11.0880    0.4736 C   0  0  0  0  0  0  0  0  0  0  0  0
    7.3367   12.3257    1.1117 C   0  0  0  0  0  0  0  0  0  0  0  0
    7.0721   12.5831    2.3664 C   0  0  0  0  0  0  0  0  0  0  0  0
    6.2627   11.6480    3.1530 C   0  0  0  0  0  0  0  0  0  0  0  0
    6.0538   11.6837    4.3761 C   0  0  0  0  0  0  0  0  0  0  0  0
    5.5015   11.2183    5.5464 C   0  0  0  0  0  0  0  0  0  0  0  0
    4.9302    9.8746    5.9003 C   0  0  0  0  0  0  0  0  0  0  0  0
    5.4404   12.0833    6.5965 C   0  0  0  0  0  0  0  0  0  0  0  0
    4.8842   11.7184    7.8797 C   0  0  0  0  0  0  0  0  0  0  0  0
    3.8851   10.8957    8.0212 C   0  0  0  0  0  0  0  0  0  0  0  0
    3.3211   10.5267    9.3375 C   0  0  0  0  0  0  0  0  0  0  0  0
    2.2584    9.5144    9.3326 C   0  0  0  0  0  0  0  0  0  0  0  0
    3.7104   11.0384   10.4418 C   0  0  0  0  0  0  0  0  0  0  0  0
    3.3173   10.8334   11.7698 C   0  0  0  0  0  0  0  0  0  0  0  0
    2.7768   11.8684   12.3402 O   0  0  0  0  0  0  0  0  0  0  0  0
    3.4186    9.6835   12.5744 N   0  0  0  0  0  0  0  0  0  0  0  0
    3.5181    8.4127   12.0528 C   0  0  0  0  0  0  0  0  0  0  0  0
    3.6008    7.5181   13.0297 N   0  0  0  0  0  0  0  0  0  0  0  0
    3.5571    8.1826   14.1893 C   0  0  0  0  0  0  0  0  0  0  0  0
    3.4476    9.4786   13.8608 N   0  0  0  0  0  0  0  0  0  0  0  0
    7.5670   13.7969    3.0168 C   0  0  0  0  0  0  0  0  0  0  0  0
    6.7646   15.0033    2.5786 C   0  0  0  0  0  0  0  0  0  0  0  0
    9.0203   14.1065    2.6928 C   0  0  0  0  0  0  0  0  0  0  0  0
    7.5158   13.6375    4.5396 C   0  0  0  0  0  0  0  0  0  0  0  0
    6.1692   14.0274    5.0475 C   0  0  0  0  0  0  0  0  0  0  0  0
    5.9567   13.4350    6.4166 C   0  0  0  0  0  0  0  0  0  0  0  0
    6.2511   14.1752    7.4031 O   0  0  0  0  0  0  0  0  0  0  0  0
  1  2  1  0
  2  3  2  0
  3  4  1  0
  4  5  2  0
  5  6  1  0
  6  7  1  0
  6  8  2  0
  8  9  1  0
  9 10  2  0
 10 11  1  0
 11 12  1  0
 11 13  2  0
 13 14  1  0
 14 15  2  0
 14 16  1  0
 16 17  1  0
 17 18  2  0
 18 19  1  0
 19 20  2  0
  3 21  1  0
 21 22  1  0
 21 23  1  0
 21 24  1  0
 24 25  1  0
 25 26  1  0
 26 27  2  0
 26  8  1  0
 20 16  1  0
M  END
>  <docking_score>  (2) 
-2.617

$$$$

     RDKit          3D

 27 28  0  0  0  0  0  0  0  0999 V2000
   19.4693   -5.9487   -3.5951 C   0  0  0  0  0  0  0  0  0  0  0  0
   19.8065   -5.7978   -5.0329 C   0  0  0  0  0  0  0  0  0  0  0  0
   20.0190   -4.6120   -5.5423 C   0  0  0  0  0  0  0  0  0  0  0  0
   19.9246   -3.4207   -4.6937 C   0  0  0  0  0  0  0  0  0  0  0  0
   20.2381   -2.2584   -4.9971 C   0  0  0  0  0  0  0  0  0  0  0  0
   20.3833   -0.9148   -4.7430 C   0  0  0  0  0  0  0  0  0  0  0  0
   20.4375   -0.1572   -3.4467 C   0  0  0  0  0  0  0  0  0  0  0  0
   20.5056   -0.0850   -5.8160 C   0  0  0  0  0  0  0  0  0  0  0  0
   20.6641    1.3457   -5.6850 C   0  0  0  0  0  0  0  0  0  0  0  0
   19.8012    2.2080   -6.1395 C   0  0  0  0  0  0  0  0  0  0  0  0
   19.9698    3.6707   -6.0018 C   0  0  0  0  0  0  0  0  0  0  0  0
   19.7488    4.4709   -7.2122 C   0  0  0  0  0  0  0  0  0  0  0  0
   20.2897    4.2453   -4.9063 C   0  0  0  0  0  0  0  0  0  0  0  0
   20.4960    5.5880   -4.5675 C   0  0  0  0  0  0  0  0  0  0  0  0
   21.3823    6.1998   -5.2948 O   0  0  0  0  0  0  0  0  0  0  0  0
   19.8925    6.3695   -3.5650 N   0  0  0  0  0  0  0  0  0  0  0  0
   20.5453    7.4005   -2.9266 C   0  0  0  0  0  0  0  0  0  0  0  0
   19.7471    7.9674   -2.0305 N   0  0  0  0  0  0  0  0  0  0  0  0
   18.5758    7.3233   -2.0696 C   0  0  0  0  0  0  0  0  0  0  0  0
   18.7153    6.3737   -3.0067 N   0  0  0  0  0  0  0  0  0  0  0  0
   20.3515   -4.4380   -6.9566 C   0  0  0  0  0  0  0  0  0  0  0  0
   19.1206   -4.6113   -7.8204 C   0  0  0  0  0  0  0  0  0  0  0  0
   21.3772   -5.4397   -7.4639 C   0  0  0  0  0  0  0  0  0  0  0  0
   20.9823   -3.0606   -7.1844 C   0  0  0  0  0  0  0  0  0  0  0  0
   19.9159   -2.0425   -7.4068 C   0  0  0  0  0  0  0  0  0  0  0  0
   20.4734   -0.6658   -7.1530 C   0  0  0  0  0  0  0  0  0  0  0  0
   20.9129   -0.0402   -8.1647 O   0  0  0  0  0  0  0  0  0  0  0  0
  1  2  1  0
  2  3  2  0
  3  4  1  0
  4  5  2  0
  5  6  1  0
  6  7  1  0
  6  8  2  0
  8  9  1  0
  9 10  2  0
 10 11  1  0
 11 12  1  0
 11 13  2  0
 13 14  1  0
 14 15  2  0
 14 16  1  0
 16 17  1  0
 17 18  2  0
 18 19  1  0
 19 20  2  0
  3 21  1  0
 21 22  1  0
 21 23  1  0
 21 24  1  0
 24 25  1  0
 25 26  1  0
 26 27  2  0
 26  8  1  0
 20 16  1  0
M  END
>  <docking_score>  (3) 
-1.78

$$$$
