
     RDKit          3D

  9  9  0  0  0  0  0  0  0  0999 V2000
    5.6570   -1.9954   -7.2965 C   0  0  0  0  0  0  0  0  0  0  0  0
    5.7177   -2.0983   -5.9238 O   0  0  0  0  0  0  0  0  0  0  0  0
    6.8563   -1.4026   -5.4951 C   0  0  0  0  0  3  0  0  0  0  0  0
    6.6067   -0.0585   -5.3359 O   0  0  0  0  0  0  0  0  0  0  0  0
    6.8761    0.6992   -6.4588 C   0  0  2  0  0  0  0  0  0  0  0  0
    6.1627    2.0371   -6.2704 C   0  0  0  0  0  0  0  0  0  0  0  0
    6.5535    2.5033   -4.8618 C   0  0  0  0  0  2  0  0  0  0  0  0
    6.4642    0.0430   -7.7442 C   0  0  0  0  0  3  0  0  0  0  0  0
    5.2900   -0.6897   -7.6213 O   0  0  0  0  0  0  0  0  0  0  0  0
  1  2  1  0
  2  3  1  0
  3  4  1  0
  4  5  1  0
  5  6  1  1
  6  7  1  0
  5  8  1  0
  8  9  1  0
  9  1  1  0
M  RAD  3   3   2   7   3   8   2
M  END
>  <docking_score>  (1) 
-4.3890000000000002

$$$$

     RDKit          3D

  9  9  0  0  0  0  0  0  0  0999 V2000
    6.4208    1.6358   -6.9285 C   0  0  0  0  0  0  0  0  0  0  0  0
    5.7814    1.0152   -7.9794 O   0  0  0  0  0  0  0  0  0  0  0  0
    6.4842   -0.1621   -8.2695 C   0  0  0  0  0  3  0  0  0  0  0  0
    6.0841   -1.2086   -7.4701 O   0  0  0  0  0  0  0  0  0  0  0  0
    6.8279   -1.3487   -6.3147 C   0  0  2  0  0  0  0  0  0  0  0  0
    6.0160   -2.2348   -5.3715 C   0  0  0  0  0  0  0  0  0  0  0  0
    5.2363   -3.1859   -6.2890 C   0  0  0  0  0  2  0  0  0  0  0  0
    7.1813   -0.0445   -5.6613 C   0  0  0  0  0  3  0  0  0  0  0  0
    6.1698    0.9020   -5.7693 O   0  0  0  0  0  0  0  0  0  0  0  0
  1  2  1  0
  2  3  1  0
  3  4  1  0
  4  5  1  0
  5  6  1  1
  6  7  1  0
  5  8  1  0
  8  9  1  0
  9  1  1  0
M  RAD  3   3   2   7   3   8   2
M  END
>  <docking_score>  (2) 
-4.0789999999999997

$$$$

     RDKit          3D

  9  9  0  0  0  0  0  0  0  0999 V2000
   14.6483   -1.6281   -4.7653 C   0  0  0  0  0  0  0  0  0  0  0  0
   14.0696   -2.8448   -5.0534 O   0  0  0  0  0  0  0  0  0  0  0  0
   15.1020   -3.7551   -5.3174 C   0  0  0  0  0  3  0  0  0  0  0  0
   15.5977   -4.3176   -4.1633 O   0  0  0  0  0  0  0  0  0  0  0  0
   16.6743   -3.6396   -3.6259 C   0  0  2  0  0  0  0  0  0  0  0  0
   16.8184   -4.1142   -2.1808 C   0  0  0  0  0  0  0  0  0  0  0  0
   18.2376   -3.7046   -1.7654 C   0  0  0  0  0  2  0  0  0  0  0  0
   16.5435   -2.1460   -3.6941 C   0  0  0  0  0  3  0  0  0  0  0  0
   15.2374   -1.7118   -3.5039 O   0  0  0  0  0  0  0  0  0  0  0  0
  1  2  1  0
  2  3  1  0
  3  4  1  0
  4  5  1  0
  5  6  1  1
  6  7  1  0
  5  8  1  0
  8  9  1  0
  9  1  1  0
M  RAD  3   3   2   7   3   8   2
M  END
>  <docking_score>  (3) 
-3.2610000000000001

$$$$
