
     RDKit          3D

 26 28  0  0  0  0  0  0  0  0999 V2000
   17.6953   -4.4236   -5.0306 C   0  0  1  0  0  0  0  0  0  0  0  0
   18.2826   -3.2718   -5.0508 O   0  0  0  0  0  0  0  0  0  0  0  0
   18.0146   -1.9701   -5.5669 C   0  0  0  0  0  0  0  0  0  0  0  0
   17.0690   -1.5545   -6.4010 C   0  0  0  0  0  0  0  0  0  0  0  0
   15.7888   -2.4387   -6.5903 C   0  0  0  0  0  0  0  0  0  0  0  0
   15.8660   -3.6414   -6.0525 C   0  0  0  0  0  0  0  0  0  0  0  0
   16.9318   -4.5641   -6.5445 C   0  0  2  0  0  0  0  0  0  0  0  0
   16.6417   -5.9872   -6.6954 C   0  0  0  0  0  0  0  0  0  0  0  0
   16.8611   -6.4654   -8.1182 C   0  0  0  0  0  0  0  0  0  0  0  0
   17.7686   -7.7587   -8.0814 C   0  0  0  0  0  3  0  0  0  0  0  0
   18.5075   -7.6319   -6.7763 C   0  0  0  0  0  0  0  0  0  0  0  0
   18.0377   -8.2334   -5.6292 C   0  0  0  0  0  0  0  0  0  0  0  0
   18.9802   -7.9339   -4.3653 C   0  0  0  0  0  0  0  0  0  0  0  0
   18.1634   -6.5759   -3.9405 C   0  0  0  0  0  0  0  0  0  0  0  0
   18.3504   -5.7730   -5.0521 C   0  0  0  0  0  0  0  0  0  0  0  0
   15.3702   -4.4335   -4.9693 C   0  0  0  0  0  0  0  0  0  0  0  0
   16.4734   -4.6581   -4.2423 N   0  0  0  0  0  4  0  0  0  0  0  0
   16.5218   -5.0159   -2.8012 C   0  0  0  0  0  0  0  0  0  0  0  0
   16.7837   -3.8007   -2.1123 C   0  0  0  0  0  0  0  0  0  0  0  0
   16.5245   -2.4838   -2.2012 C   0  0  0  0  0  0  0  0  0  0  0  0
   17.7252   -1.4873   -2.0669 C   0  0  0  0  0  0  0  0  0  0  0  0
   18.8803   -2.2846   -1.7869 C   0  0  0  0  0  2  0  0  0  0  0  0
   20.2475   -1.7717   -1.5822 C   0  0  1  0  0  0  0  0  0  0  0  0
   21.1539   -2.9703   -1.1604 C   0  0  0  0  0  2  0  0  0  0  0  0
   20.6961   -1.3922   -2.9278 O   0  0  0  0  0  0  0  0  0  0  0  0
   21.3147   -2.5770   -3.3070 O   0  0  0  0  0  0  0  0  0  0  0  0
  1  2  1  1
  2  3  1  0
  3  4  2  0
  4  5  1  0
  5  6  2  0
  6  7  1  0
  7  8  1  1
  8  9  1  0
  9 10  1  0
 10 11  1  0
 11 12  2  3
 12 13  1  0
 13 14  1  0
 14 15  2  3
  6 16  1  0
 16 17  2  0
 17 18  1  0
 18 19  1  0
 19 20  1  0
 20 21  1  0
 21 22  1  0
 22 23  1  0
 23 24  1  6
 23 25  1  0
 25 26  1  0
  7  1  1  0
 15  1  1  0
 17  1  1  0
M  CHG  1  17   1
M  RAD  3  10   2  22   3  24   3
M  END
>  <docking_score>  (1) 
-4.8520000000000003

$$$$

     RDKit          3D

 26 28  0  0  0  0  0  0  0  0999 V2000
    4.6944   11.4551    4.1466 C   0  0  1  0  0  0  0  0  0  0  0  0
    3.9833   12.5049    3.8930 O   0  0  0  0  0  0  0  0  0  0  0  0
    3.8024   13.8051    4.4493 C   0  0  0  0  0  0  0  0  0  0  0  0
    4.2289   14.3147    5.5985 C   0  0  0  0  0  0  0  0  0  0  0  0
    5.4283   13.6217    6.3318 C   0  0  0  0  0  0  0  0  0  0  0  0
    5.7733   12.4486    5.8353 C   0  0  0  0  0  0  0  0  0  0  0  0
    4.7565   11.3552    5.8439 C   0  0  2  0  0  0  0  0  0  0  0  0
    5.1719    9.9852    6.1310 C   0  0  0  0  0  0  0  0  0  0  0  0
    4.4476    9.4106    7.3337 C   0  0  0  0  0  0  0  0  0  0  0  0
    3.8533    8.0005    6.9385 C   0  0  0  0  0  3  0  0  0  0  0  0
    3.7269    8.0803    5.4408 C   0  0  0  0  0  0  0  0  0  0  0  0
    4.7251    7.6119    4.6147 C   0  0  0  0  0  0  0  0  0  0  0  0
    4.3728    7.8301    3.0644 C   0  0  0  0  0  0  0  0  0  0  0  0
    5.0715    9.3132    3.0021 C   0  0  0  0  0  0  0  0  0  0  0  0
    4.3095   10.0242    3.9128 C   0  0  0  0  0  0  0  0  0  0  0  0
    6.7972   11.7927    5.0816 C   0  0  0  0  0  0  0  0  0  0  0  0
    6.1552   11.4430    3.9584 N   0  0  0  0  0  4  0  0  0  0  0  0
    6.7777   11.1531    2.6410 C   0  0  0  0  0  0  0  0  0  0  0  0
    6.8260   12.3977    1.9567 C   0  0  0  0  0  0  0  0  0  0  0  0
    6.9726   13.7113    2.2064 C   0  0  0  0  0  0  0  0  0  0  0  0
    8.4133   14.3196    2.1218 C   0  0  0  0  0  0  0  0  0  0  0  0
    9.1266   13.8243    3.2594 C   0  0  0  0  0  2  0  0  0  0  0  0
    9.3821   14.5725    4.5040 C   0  0  1  0  0  0  0  0  0  0  0  0
   10.8850   14.9937    4.5133 C   0  0  0  0  0  2  0  0  0  0  0  0
    8.6241   15.8190    4.3381 O   0  0  0  0  0  0  0  0  0  0  0  0
    8.3078   16.0747    5.6666 O   0  0  0  0  0  0  0  0  0  0  0  0
  1  2  1  1
  2  3  1  0
  3  4  2  0
  4  5  1  0
  5  6  2  0
  6  7  1  0
  7  8  1  6
  8  9  1  0
  9 10  1  0
 10 11  1  0
 11 12  2  3
 12 13  1  0
 13 14  1  0
 14 15  2  3
  6 16  1  0
 16 17  2  0
 17 18  1  0
 18 19  1  0
 19 20  1  0
 20 21  1  0
 21 22  1  0
 22 23  1  0
 23 24  1  6
 23 25  1  0
 25 26  1  0
  7  1  1  0
 15  1  1  0
 17  1  1  0
M  CHG  1  17   1
M  RAD  3  10   2  22   3  24   3
M  END
>  <docking_score>  (2) 
-4.3860000000000001

$$$$

     RDKit          3D

 26 28  0  0  0  0  0  0  0  0999 V2000
    4.8216    9.5932    5.0747 C   0  0  1  0  0  0  0  0  0  0  0  0
    6.0018   10.0861    4.8845 O   0  0  0  0  0  0  0  0  0  0  0  0
    6.7645   10.5795    3.7856 C   0  0  0  0  0  0  0  0  0  0  0  0
    6.5276   10.5218    2.4806 C   0  0  0  0  0  0  0  0  0  0  0  0
    5.0623   10.2580    1.9913 C   0  0  0  0  0  0  0  0  0  0  0  0
    4.2201    9.9010    2.9426 C   0  0  0  0  0  0  0  0  0  0  0  0
    4.5046    8.6450    3.6981 C   0  0  2  0  0  0  0  0  0  0  0  0
    3.4020    7.7687    4.0835 C   0  0  0  0  0  0  0  0  0  0  0  0
    3.5619    6.3701    3.5182 C   0  0  0  0  0  0  0  0  0  0  0  0
    3.3751    5.3275    4.6912 C   0  0  0  0  0  3  0  0  0  0  0  0
    3.7108    6.1227    5.9242 C   0  0  0  0  0  0  0  0  0  0  0  0
    2.7276    6.7482    6.6593 C   0  0  0  0  0  0  0  0  0  0  0  0
    3.3327    7.5525    7.9091 C   0  0  0  0  0  0  0  0  0  0  0  0
    3.5269    8.9427    7.0597 C   0  0  0  0  0  0  0  0  0  0  0  0
    4.4271    8.5547    6.0828 C   0  0  0  0  0  0  0  0  0  0  0  0
    3.1081   10.3732    3.7088 C   0  0  0  0  0  0  0  0  0  0  0  0
    3.6071   10.4176    4.9518 N   0  0  0  0  0  4  0  0  0  0  0  0
    3.0954   11.2399    6.0784 C   0  0  0  0  0  0  0  0  0  0  0  0
    3.1811   12.5888    5.6392 C   0  0  0  0  0  0  0  0  0  0  0  0
    4.1000   13.5347    5.3739 C   0  0  0  0  0  0  0  0  0  0  0  0
    4.5873   13.6920    3.8938 C   0  0  0  0  0  0  0  0  0  0  0  0
    5.9915   13.9612    3.9590 C   0  0  0  0  0  2  0  0  0  0  0  0
    6.7297   14.8840    3.0772 C   0  0  1  0  0  0  0  0  0  0  0  0
    7.7856   15.6383    3.9445 C   0  0  0  0  0  2  0  0  0  0  0  0
    7.5023   14.0002    2.1952 O   0  0  0  0  0  0  0  0  0  0  0  0
    8.5723   14.8389    1.9088 O   0  0  0  0  0  0  0  0  0  0  0  0
  1  2  1  1
  2  3  1  0
  3  4  2  0
  4  5  1  0
  5  6  2  0
  6  7  1  0
  7  8  1  1
  8  9  1  0
  9 10  1  0
 10 11  1  0
 11 12  2  3
 12 13  1  0
 13 14  1  0
 14 15  2  3
  6 16  1  0
 16 17  2  0
 17 18  1  0
 18 19  1  0
 19 20  1  0
 20 21  1  0
 21 22  1  0
 22 23  1  0
 23 24  1  1
 23 25  1  0
 25 26  1  0
  7  1  1  0
 15  1  1  0
 17  1  1  0
M  CHG  1  17   1
M  RAD  3  10   2  22   3  24   3
M  END
>  <docking_score>  (3) 
-4.2089999999999996

$$$$
