
     RDKit          3D

 52 53  0  0  0  0  0  0  0  0999 V2000
   13.0514   11.2756   16.4087 O   0  0  0  0  0  0  0  0  0  0  0  0
   12.5467   11.4911   15.1233 C   0  0  0  0  0  0  0  0  0  0  0  0
   13.1699   12.7418   14.5888 C   0  0  0  0  0  3  0  0  0  0  0  0
   12.1683   13.5185   13.9319 N   0  0  0  0  0  0  0  0  0  0  0  0
   11.0009   13.7700   14.7953 C   0  0  2  0  0  0  0  0  0  0  0  0
    9.8474   13.0747   14.1890 C   0  0  0  0  0  0  0  0  0  0  0  0
    8.6323   13.6746   14.3294 O   0  0  0  0  0  0  0  0  0  0  0  0
   10.8818   15.2353   14.9590 C   0  0  1  0  0  0  0  0  0  0  0  0
   11.3564   15.9432   13.8641 O   0  0  0  0  0  0  0  0  0  0  0  0
    9.5490   15.7411   15.3662 C   0  0  2  0  0  0  0  0  0  0  0  0
    8.8162   14.8627   16.1549 O   0  0  0  0  0  0  0  0  0  0  0  0
    8.7508   16.0197   14.0858 C   0  0  0  0  0  3  0  0  0  0  0  0
    8.4543   14.7036   13.3803 C   0  0  2  0  0  0  0  0  0  0  0  0
    6.9973   14.6697   12.9420 C   0  0  0  0  0  0  0  0  0  0  0  0
    6.8536   15.0948   11.5014 C   0  0  0  0  0  0  0  0  0  0  0  0
    5.5317   14.9094   11.1357 O   0  0  0  0  0  0  0  0  0  0  0  0
    5.4868   13.9573   10.1129 C   0  0  1  0  0  0  0  0  0  0  0  0
    5.2217   12.6888   10.6508 O   0  0  0  0  0  0  0  0  0  0  0  0
    4.3827   14.3549    9.1427 C   0  0  0  0  0  0  0  0  0  0  0  0
    4.5496   13.6031    7.9825 O   0  0  0  0  0  0  0  0  0  0  0  0
    4.7367   11.9579    8.4326 S   0  0  0  0  0  0  0  0  0  0  0  0
    3.9552   10.9913    7.2418 O   0  0  0  0  0  0  0  0  0  0  0  0
    4.6321    9.8554    7.1712 O   0  0  0  0  0  0  0  0  0  0  0  0
    4.9141    9.6143    5.8288 C   0  0  0  0  0  0  0  0  0  0  0  0
    3.7740    8.9140    5.2456 N   0  0  0  0  0  0  0  0  0  0  0  0
    4.2454    7.6500    4.7062 C   0  0  0  0  0  0  0  0  0  0  0  0
    5.1717    7.0472    5.5611 O   0  0  0  0  0  0  0  0  0  0  0  0
    6.2203    6.5958    4.7678 C   0  0  1  0  0  0  0  0  0  0  0  0
    7.3231    7.4329    4.8273 F   0  0  0  0  0  0  0  0  0  0  0  0
    6.7012    5.2171    5.1843 C   0  0  0  0  0  0  0  0  0  0  0  0
    7.9570    5.0438    4.5910 O   0  0  0  0  0  0  0  0  0  0  0  0
    8.9219    5.2768    5.5764 C   0  0  0  0  0  0  0  0  0  0  0  0
    9.3741    4.0339    5.9961 O   0  0  0  0  0  0  0  0  0  0  0  0
   10.3624    4.1249    6.9736 C   0  0  0  0  0  0  0  0  0  0  0  0
   10.6431    2.8167    7.3893 O   0  0  0  0  0  0  0  0  0  0  0  0
   12.0276    2.6510    7.2621 C   0  0  0  0  0  0  0  0  0  0  0  0
   12.5643    2.2149    8.4675 O   0  0  0  0  0  0  0  0  0  0  0  0
   13.3939    3.1520    8.9043 O   0  0  0  0  0  0  0  0  0  0  0  0
   13.4005    3.0952   10.2983 C   0  0  2  0  0  0  0  0  0  0  0  0
   13.1372    4.3446   10.8647 O   0  0  0  0  0  0  0  0  0  0  0  0
   14.7531    2.5717   10.7129 C   0  0  0  0  0  0  0  0  0  0  0  0
   15.0497    3.0402   12.1209 C   0  0  0  0  0  3  0  0  0  0  0  0
   15.5323    4.3516   12.0276 O   0  0  0  0  0  0  0  0  0  0  0  0
   15.4345    4.9676   13.2793 C   0  0  0  0  0  0  0  0  0  0  0  0
   15.6308    6.3327   13.0612 O   0  0  0  0  0  0  0  0  0  0  0  0
   14.8848    7.0505   13.9893 C   0  0  1  0  0  0  0  0  0  0  0  0
   14.9038    6.2583   15.2895 C   0  0  0  0  0  0  0  0  0  0  0  0
   15.5599    8.2413   14.2266 O   0  0  0  0  0  0  0  0  0  0  0  0
   15.1978    8.7326   15.4802 C   0  0  0  0  0  2  0  0  0  0  0  0
   14.0576    9.5432   15.3981 O   0  0  0  0  0  0  0  0  0  0  0  0
   14.2778   10.6184   16.2699 C   0  0  2  0  0  0  0  0  0  0  0  0
   14.6972   10.0924   17.4894 O   0  0  0  0  0  0  0  0  0  0  0  0
  1  2  1  0
  2  3  1  0
  3  4  1  0
  5  4  1  6
  5  6  1  0
  6  7  1  0
  5  8  1  0
  8  9  1  6
  8 10  1  0
 10 11  1  1
 10 12  1  0
 13 12  1  1
 13 14  1  0
 14 15  1  0
 15 16  1  0
 16 17  1  0
 17 18  1  1
 17 19  1  0
 19 20  1  0
 20 21  1  0
 21 22  1  0
 22 23  1  0
 23 24  1  0
 24 25  1  0
 25 26  1  0
 26 27  1  0
 27 28  1  0
 28 29  1  1
 28 30  1  0
 30 31  1  0
 31 32  1  0
 32 33  1  0
 33 34  1  0
 34 35  1  0
 35 36  1  0
 36 37  1  0
 37 38  1  0
 38 39  1  0
 39 40  1  1
 39 41  1  0
 41 42  1  0
 42 43  1  0
 43 44  1  0
 44 45  1  0
 45 46  1  0
 46 47  1  1
 46 48  1  0
 48 49  1  0
 49 50  1  0
 50 51  1  0
 51 52  1  1
 51  1  1  0
 13  7  1  0
M  RAD  4   3   2  12   2  42   2  49   3
M  END
>  <docking_score>  (1) 
117.88200000000001

$$$$
