
     RDKit          3D

 15 15  0  0  0  0  0  0  0  0999 V2000
   15.8031   -2.5291   -8.5550 C   0  0  0  0  0  0  0  0  0  0  0  0
   16.1231   -1.9670   -7.1710 C   0  0  0  0  0  3  0  0  0  0  0  0
   15.2851   -2.7712   -6.1898 C   0  0  2  0  0  0  0  0  0  0  0  0
   14.5710   -1.9099   -5.2027 C   0  0  2  0  0  0  0  0  0  0  0  0
   14.6363   -0.5805   -5.5837 O   0  0  0  0  0  0  0  0  0  0  0  0
   15.1829   -2.0836   -3.8478 C   0  0  2  0  0  0  0  0  0  0  0  0
   14.8293   -0.9807   -3.0490 O   0  0  0  0  0  0  0  0  0  0  0  0
   16.6878   -2.0296   -3.9987 C   0  0  1  0  0  0  0  0  0  0  0  0
   17.3342   -1.7772   -2.7982 O   0  0  0  0  0  0  0  0  0  0  0  0
   17.1385   -3.3325   -4.5955 C   0  0  0  0  0  3  0  0  0  0  0  0
   16.1402   -3.8282   -5.6025 C   0  0  1  0  0  0  0  0  0  0  0  0
   15.3888   -5.0291   -5.0918 C   0  0  0  0  0  3  0  0  0  0  0  0
   15.9269   -6.2070   -5.8477 C   0  0  0  0  0  0  0  0  0  0  0  0
   16.6087   -6.0700   -6.9671 C   0  0  0  0  0  0  0  0  0  0  0  0
   17.0586   -7.2259   -7.5823 O   0  0  0  0  0  0  0  0  0  0  0  0
  1  2  1  0
  3  2  1  1
  3  4  1  0
  4  5  1  6
  4  6  1  0
  6  7  1  1
  6  8  1  0
  8  9  1  1
  8 10  1  0
 10 11  1  0
 11 12  1  1
 12 13  1  0
 13 14  2  3
 14 15  1  0
 11  3  1  0
M  RAD  3   2   2  10   2  12   2
M  END
>  <docking_score>  (1) 
-4.0860000000000003

$$$$

     RDKit          3D

 15 15  0  0  0  0  0  0  0  0999 V2000
   16.3154   -1.7615   -2.3516 C   0  0  0  0  0  0  0  0  0  0  0  0
   15.7001   -2.4345   -3.5773 C   0  0  0  0  0  3  0  0  0  0  0  0
   16.8438   -3.1485   -4.2800 C   0  0  2  0  0  0  0  0  0  0  0  0
   16.4600   -3.6616   -5.6274 C   0  0  2  0  0  0  0  0  0  0  0  0
   15.2403   -3.1349   -6.0166 O   0  0  0  0  0  0  0  0  0  0  0  0
   16.3839   -5.1561   -5.5940 C   0  0  2  0  0  0  0  0  0  0  0  0
   15.6101   -5.5923   -6.6850 O   0  0  0  0  0  0  0  0  0  0  0  0
   15.6247   -5.5625   -4.3494 C   0  0  1  0  0  0  0  0  0  0  0  0
   15.1499   -6.8635   -4.4169 O   0  0  0  0  0  0  0  0  0  0  0  0
   16.5380   -5.3775   -3.1710 C   0  0  0  0  0  3  0  0  0  0  0  0
   17.4007   -4.1615   -3.3542 C   0  0  1  0  0  0  0  0  0  0  0  0
   18.8340   -4.5357   -3.6247 C   0  0  0  0  0  3  0  0  0  0  0  0
   19.5462   -4.4259   -2.3098 C   0  0  0  0  0  0  0  0  0  0  0  0
   19.4580   -3.3514   -1.5518 C   0  0  0  0  0  0  0  0  0  0  0  0
   20.1575   -3.3578   -0.3570 O   0  0  0  0  0  0  0  0  0  0  0  0
  1  2  1  0
  3  2  1  1
  3  4  1  0
  4  5  1  1
  4  6  1  0
  6  7  1  6
  6  8  1  0
  8  9  1  6
  8 10  1  0
 10 11  1  0
 11 12  1  6
 12 13  1  0
 13 14  2  3
 14 15  1  0
 11  3  1  0
M  RAD  3   2   2  10   2  12   2
M  END
>  <docking_score>  (2) 
-4.0529999999999999

$$$$

     RDKit          3D

 15 15  0  0  0  0  0  0  0  0999 V2000
   14.4416   -1.8197   -4.9886 C   0  0  0  0  0  0  0  0  0  0  0  0
   15.7589   -1.9946   -4.2349 C   0  0  0  0  0  3  0  0  0  0  0  0
   15.7567   -3.4239   -3.7163 C   0  0  2  0  0  0  0  0  0  0  0  0
   16.6056   -3.5960   -2.5014 C   0  0  2  0  0  0  0  0  0  0  0  0
   16.9763   -2.3636   -1.9913 O   0  0  0  0  0  0  0  0  0  0  0  0
   17.8243   -4.3929   -2.8480 C   0  0  2  0  0  0  0  0  0  0  0  0
   18.8029   -4.1716   -1.8616 O   0  0  0  0  0  0  0  0  0  0  0  0
   18.3953   -3.8458   -4.1385 C   0  0  1  0  0  0  0  0  0  0  0  0
   19.7141   -4.2240   -4.3393 O   0  0  0  0  0  0  0  0  0  0  0  0
   17.5181   -4.3124   -5.2653 C   0  0  0  0  0  3  0  0  0  0  0  0
   16.0766   -4.3299   -4.8432 C   0  0  1  0  0  0  0  0  0  0  0  0
   15.5650   -5.7367   -4.6798 C   0  0  0  0  0  3  0  0  0  0  0  0
   14.8231   -6.0572   -5.9428 C   0  0  0  0  0  0  0  0  0  0  0  0
   13.8876   -5.2653   -6.4271 C   0  0  0  0  0  0  0  0  0  0  0  0
   13.2668   -5.6591   -7.6003 O   0  0  0  0  0  0  0  0  0  0  0  0
  1  2  1  0
  3  2  1  6
  3  4  1  0
  4  5  1  6
  4  6  1  0
  6  7  1  1
  6  8  1  0
  8  9  1  6
  8 10  1  0
 10 11  1  0
 11 12  1  1
 12 13  1  0
 13 14  2  3
 14 15  1  0
 11  3  1  0
M  RAD  3   2   2  10   2  12   2
M  END
>  <docking_score>  (3) 
-4.008

$$$$
