
     RDKit          3D

 47 48  0  0  0  0  0  0  0  0999 V2000
   21.1165   -1.1676   -2.4417 C   0  0  0  0  0  0  0  0  0  0  0  0
   19.7881   -1.6460   -1.9592 C   0  0  2  0  0  0  0  0  0  0  0  0
   19.9524   -2.7083   -0.8626 C   0  0  0  0  0  0  0  0  0  0  0  0
   18.9834   -2.2485   -3.1155 C   0  0  0  0  0  0  0  0  0  0  0  0
   19.7069   -3.4803   -3.5736 C   0  0  0  0  0  0  0  0  0  0  0  0
   19.0579   -4.7909   -3.3328 C   0  0  0  0  0  0  0  0  0  0  0  0
   17.7503   -4.8204   -2.6646 C   0  0  1  0  0  0  0  0  0  0  0  0
   17.0989   -3.4871   -2.6008 C   0  0  0  0  0  0  0  0  0  0  0  0
   16.8353   -5.9369   -2.9850 C   0  0  0  0  0  3  0  0  0  0  0  0
   15.4689   -5.8618   -2.3848 C   0  0  0  0  0  3  0  0  0  0  0  0
   14.6512   -7.0837   -2.7229 C   0  0  0  0  0  0  0  0  0  0  0  0
   14.4816   -7.0849   -4.3135 C   0  0  0  0  0  0  0  0  0  0  0  0
   13.0729   -7.4649   -4.6169 C   0  0  0  0  0  0  0  0  0  0  0  0
   15.3947   -8.2992   -4.6725 C   0  0  0  0  0  0  0  0  0  0  0  0
   14.9866   -5.9258   -4.7569 C   0  0  0  0  0  0  0  0  0  0  0  0
   15.4513   -4.8481   -5.1863 C   0  0  0  0  0  0  0  0  0  0  0  0
   15.9744   -3.6941   -5.6554 C   0  0  0  0  0  0  0  0  0  0  0  0
   17.4281   -3.6414   -5.9606 C   0  0  0  0  0  0  0  0  0  0  0  0
   17.7148   -4.5309   -7.2152 C   0  0  1  0  0  0  0  0  0  0  0  0
   17.4850   -3.5604   -8.2676 O   0  0  0  0  0  0  0  0  0  0  0  0
   19.2205   -4.7811   -7.2567 C   0  0  0  0  0  0  0  0  0  0  0  0
   19.9720   -3.4558   -7.0290 C   0  0  0  0  0  0  0  0  0  0  0  0
   19.0712   -2.2948   -7.4010 C   0  0  1  0  0  0  0  0  0  0  0  0
   19.1314   -1.2622   -6.3234 C   0  0  0  0  0  0  0  0  0  0  0  0
   19.4673   -1.7538   -8.5924 O   0  0  0  0  0  0  0  0  0  0  0  0
   20.7109   -1.2357   -8.6209 N   0  0  0  0  0  0  0  0  0  0  0  0
   21.3823   -1.3825   -7.3552 C   0  0  0  0  0  0  0  0  0  0  0  0
   20.6053   -0.8674   -6.2050 C   0  0  2  0  0  0  0  0  0  0  0  0
   21.1443   -1.3786   -4.9278 C   0  0  0  0  0  0  0  0  0  0  0  0
   21.1404   -0.4870   -3.7539 C   0  0  1  0  0  0  0  0  0  0  0  0
   20.2699    0.7581   -3.8682 C   0  0  0  0  0  0  0  0  0  0  0  0
   20.6656    1.8746   -2.4894 P   0  0  0  0  0  0  0  0  0  0  0  0
   20.4054    3.6216   -2.8671 C   0  0  0  0  0  0  0  0  0  0  0  0
   21.3598    4.1874   -3.8441 C   0  0  0  0  0  0  0  0  0  0  0  0
   20.6212    4.9446   -4.9315 C   0  0  2  0  0  0  0  0  0  0  0  0
   20.3700    6.7228   -4.3433 P   0  0  0  0  0  0  0  0  0  0  0  0
   18.8960    4.1818   -5.0560 P   0  0  0  0  0  0  0  0  0  0  0  0
   19.0138    2.4519   -5.6704 C   0  0  0  0  0  3  0  0  0  0  0  0
   17.8409    2.0263   -6.4396 C   0  0  0  0  0  0  0  0  0  0  0  0
   16.9502    1.0900   -5.6963 C   0  0  2  0  0  0  0  0  0  0  0  0
   16.9449   -0.2367   -6.4657 C   0  0  0  0  0  0  0  0  0  0  0  0
   15.4919    1.5675   -5.6425 C   0  0  0  0  0  0  0  0  0  0  0  0
   14.5859    0.4057   -5.4018 C   0  0  0  0  0  0  0  0  0  0  0  0
   14.0887    0.3962   -3.9622 C   0  0  1  0  0  0  0  0  0  0  0  0
   12.7069   -0.2505   -3.9503 C   0  0  0  0  0  2  0  0  0  0  0  0
   14.9761   -0.5860   -3.1464 C   0  0  0  0  0  0  0  0  0  0  0  0
   14.6471   -1.8720   -3.4069 F   0  0  0  0  0  0  0  0  0  0  0  0
  1  2  1  0
  2  3  1  1
  2  4  1  0
  4  5  1  0
  5  6  1  0
  6  7  1  0
  7  8  1  6
  7  9  1  0
  9 10  1  0
 10 11  1  0
 11 12  1  0
 12 13  1  0
 12 14  1  0
 12 15  1  0
 15 16  3  0
 16 17  1  0
 17 18  1  0
 18 19  1  0
 19 20  1  6
 19 21  1  0
 21 22  1  0
 23 22  1  1
 23 24  1  0
 23 25  1  0
 25 26  1  0
 26 27  1  0
 28 27  1  6
 28 29  1  0
 29 30  1  0
 30 31  1  6
 31 32  1  0
 32 33  1  0
 33 34  1  0
 34 35  1  0
 35 36  1  1
 35 37  1  0
 37 38  1  0
 38 39  1  0
 39 40  1  0
 40 41  1  6
 40 42  1  0
 42 43  1  0
 43 44  1  0
 44 45  1  6
 44 46  1  0
 46 47  1  0
 30  1  1  0
 28 24  1  0
M  RAD  4   9   2  10   2  38   2  45   3
M  END
>  <docking_score>  (1) 
11.67

$$$$
