
     RDKit          3D

 31 34  0  0  0  0  0  0  0  0999 V2000
    2.7963    7.9199    4.1960 C   0  0  0  0  0  0  0  0  0  0  0  0
    3.0625    7.6831    5.6636 C   0  0  1  0  0  0  0  0  0  0  0  0
    4.4811    7.2033    5.7910 C   0  0  0  0  0  0  0  0  0  0  0  0
    2.8304    8.9562    6.4413 C   0  0  0  0  0  0  0  0  0  0  0  0
    2.6597    8.5864    7.9037 C   0  0  0  0  0  0  0  0  0  0  0  0
    3.9472    9.0048    8.6071 C   0  0  0  0  0  0  0  0  0  0  0  0
    3.5374    9.5768    9.9493 C   0  0  1  0  0  0  0  0  0  0  0  0
    3.4298    8.4743   10.9848 C   0  0  0  0  0  0  0  0  0  0  0  0
    4.6115   10.5330   10.4393 C   0  0  0  0  0  3  0  0  0  0  0  0
    4.5852   11.7287    9.5052 C   0  0  0  0  0  0  0  0  0  0  0  0
    4.6955   12.9909   10.3528 C   0  0  0  0  0  0  0  0  0  0  0  0
    5.3228   14.0897    9.5614 C   0  0  2  0  0  0  0  0  0  0  0  0
    5.7710   15.1947   10.4829 C   0  0  0  0  0  0  0  0  0  0  0  0
    4.3385   14.6615    8.5578 C   0  0  0  0  0  3  0  0  0  0  0  0
    5.0522   15.5964    7.6275 C   0  0  0  0  0  0  0  0  0  0  0  0
    5.2823   14.9136    6.2970 C   0  0  1  0  0  0  0  0  0  0  0  0
    6.5195   14.0442    6.4217 C   0  0  0  0  0  2  0  0  0  0  0  0
    4.0757   14.0779    5.8927 C   0  0  0  0  0  0  0  0  0  0  0  0
    4.4392   13.0398    4.8679 C   0  0  2  0  0  0  0  0  0  0  0  0
    5.7746   13.2104    4.4385 O   0  0  0  0  0  0  0  0  0  0  0  0
    5.4375   13.7840    3.1946 C   0  0  0  0  0  0  0  0  0  0  0  0
    4.0021   13.5218    3.5256 C   0  0  1  0  0  0  0  0  0  0  0  0
    3.3423   12.4680    2.7039 C   0  0  0  0  0  0  0  0  0  0  0  0
    3.6926   11.0550    2.7186 C   0  0  2  0  0  0  0  0  0  0  0  0
    5.0262   10.6645    2.1518 C   0  0  0  0  0  2  0  0  0  0  0  0
    2.6008   10.8743    1.6929 C   0  0  0  0  0  0  0  0  0  0  0  0
    2.3762   12.3196    1.7988 C   0  0  0  0  0  0  0  0  0  0  0  0
    3.3489   10.3363    3.9946 C   0  0  0  0  0  0  0  0  0  0  0  0
    2.3273    9.2423    3.7637 C   0  0  1  0  0  0  0  0  0  0  0  0
    2.3440    8.6180    2.4053 C   0  0  0  0  0  0  0  0  0  0  0  0
    2.8141    7.3696    3.0212 C   0  0  0  0  0  0  0  0  0  0  0  0
  1  2  1  0
  2  3  1  6
  2  4  1  0
  4  5  1  0
  5  6  1  0
  6  7  1  0
  7  8  1  1
  7  9  1  0
  9 10  1  0
 10 11  1  0
 11 12  1  0
 12 13  1  1
 12 14  1  0
 14 15  1  0
 15 16  1  0
 16 17  1  1
 16 18  1  0
 19 18  1  1
 19 20  1  0
 20 21  1  0
 22 21  1  6
 22 23  1  0
 23 24  1  0
 24 25  1  6
 24 26  1  0
 26 27  1  0
 24 28  1  0
 29 28  1  6
 29 30  1  0
 30 31  1  0
 29  1  1  0
  1 31  2  0
 22 19  1  0
 23 27  2  0
M  RAD  4   9   2  14   2  17   3  25   3
M  END
>  <docking_score>  (1) 
-4.9329999999999998

$$$$

     RDKit          3D

 31 34  0  0  0  0  0  0  0  0999 V2000
    4.2826    9.7900   12.6859 C   0  0  0  0  0  0  0  0  0  0  0  0
    3.7482    8.8779   11.6075 C   0  0  1  0  0  0  0  0  0  0  0  0
    2.2637    9.0995   11.5269 C   0  0  0  0  0  0  0  0  0  0  0  0
    4.4307    9.1773   10.2945 C   0  0  0  0  0  0  0  0  0  0  0  0
    4.2209    7.9868    9.3761 C   0  0  0  0  0  0  0  0  0  0  0  0
    3.1859    8.4178    8.3416 C   0  0  0  0  0  0  0  0  0  0  0  0
    3.6316    7.8309    7.0174 C   0  0  1  0  0  0  0  0  0  0  0  0
    3.0883    6.4250    6.8510 C   0  0  0  0  0  0  0  0  0  0  0  0
    3.0574    8.6586    5.8801 C   0  0  0  0  0  3  0  0  0  0  0  0
    3.7479   10.0088    5.9360 C   0  0  0  0  0  0  0  0  0  0  0  0
    4.1149   10.4094    4.5118 C   0  0  0  0  0  0  0  0  0  0  0  0
    4.1670   11.8961    4.3922 C   0  0  2  0  0  0  0  0  0  0  0  0
    4.1552   12.2948    2.9389 C   0  0  0  0  0  0  0  0  0  0  0  0
    5.4257   12.4455    5.0379 C   0  0  0  0  0  3  0  0  0  0  0  0
    5.3452   13.9414    5.1078 C   0  0  0  0  0  0  0  0  0  0  0  0
    5.0057   14.3677    6.5193 C   0  0  1  0  0  0  0  0  0  0  0  0
    3.5039   14.2478    6.6990 C   0  0  0  0  0  2  0  0  0  0  0  0
    5.7402   13.5128    7.5428 C   0  0  0  0  0  0  0  0  0  0  0  0
    5.0813   13.5762    8.8926 C   0  0  2  0  0  0  0  0  0  0  0  0
    4.0395   14.5309    8.8935 O   0  0  0  0  0  0  0  0  0  0  0  0
    4.7606   15.5074    9.6121 C   0  0  0  0  0  0  0  0  0  0  0  0
    5.8616   14.5051    9.7604 C   0  0  1  0  0  0  0  0  0  0  0  0
    6.0699   13.9893   11.1430 C   0  0  0  0  0  0  0  0  0  0  0  0
    5.1157   13.1782   11.8853 C   0  0  2  0  0  0  0  0  0  0  0  0
    3.8378   13.8338   12.3205 C   0  0  0  0  0  2  0  0  0  0  0  0
    6.1289   13.1844   13.0033 C   0  0  0  0  0  0  0  0  0  0  0  0
    6.9714   14.0012   12.1238 C   0  0  0  0  0  0  0  0  0  0  0  0
    4.9236   11.7862   11.3483 C   0  0  0  0  0  0  0  0  0  0  0  0
    5.3548   10.7350   12.3498 C   0  0  1  0  0  0  0  0  0  0  0  0
    5.2335   11.1238   13.7883 C   0  0  0  0  0  0  0  0  0  0  0  0
    4.1701   10.1207   13.9355 C   0  0  0  0  0  0  0  0  0  0  0  0
  1  2  1  0
  2  3  1  6
  2  4  1  0
  4  5  1  0
  5  6  1  0
  6  7  1  0
  7  8  1  6
  7  9  1  0
  9 10  1  0
 10 11  1  0
 11 12  1  0
 12 13  1  6
 12 14  1  0
 14 15  1  0
 15 16  1  0
 16 17  1  1
 16 18  1  0
 19 18  1  6
 19 20  1  0
 20 21  1  0
 22 21  1  1
 22 23  1  0
 23 24  1  0
 24 25  1  1
 24 26  1  0
 26 27  1  0
 24 28  1  0
 29 28  1  6
 29 30  1  0
 30 31  1  0
 29  1  1  0
  1 31  2  0
 22 19  1  0
 23 27  2  0
M  RAD  4   9   2  14   2  17   3  25   3
M  END
>  <docking_score>  (2) 
-4.7130000000000001

$$$$

     RDKit          3D

 31 34  0  0  0  0  0  0  0  0999 V2000
    4.9842    9.5665    3.8288 C   0  0  0  0  0  0  0  0  0  0  0  0
    4.5460    8.8363    5.0759 C   0  0  1  0  0  0  0  0  0  0  0  0
    5.7760    8.2444    5.7052 C   0  0  0  0  0  0  0  0  0  0  0  0
    3.8427    9.7901    6.0113 C   0  0  0  0  0  0  0  0  0  0  0  0
    3.0388    8.9667    7.0014 C   0  0  0  0  0  0  0  0  0  0  0  0
    3.7880    9.0365    8.3285 C   0  0  0  0  0  0  0  0  0  0  0  0
    2.7344    9.1553    9.4112 C   0  0  1  0  0  0  0  0  0  0  0  0
    2.2637    7.7809    9.8460 C   0  0  0  0  0  0  0  0  0  0  0  0
    3.3424    9.8166   10.6363 C   0  0  0  0  0  3  0  0  0  0  0  0
    3.6381   11.2542   10.2502 C   0  0  0  0  0  0  0  0  0  0  0  0
    3.2021   12.1507   11.4033 C   0  0  0  0  0  0  0  0  0  0  0  0
    4.0119   13.4043   11.4158 C   0  0  2  0  0  0  0  0  0  0  0  0
    3.8527   14.1051   12.7404 C   0  0  0  0  0  0  0  0  0  0  0  0
    3.5674   14.3446   10.3106 C   0  0  0  0  0  3  0  0  0  0  0  0
    4.5355   15.4843   10.1982 C   0  0  0  0  0  0  0  0  0  0  0  0
    5.4380   15.2699    9.0028 C   0  0  1  0  0  0  0  0  0  0  0  0
    6.5508   14.3253    9.4165 C   0  0  0  0  0  2  0  0  0  0  0  0
    4.6610   14.7025    7.8230 C   0  0  0  0  0  0  0  0  0  0  0  0
    5.5720   14.0428    6.8255 C   0  0  2  0  0  0  0  0  0  0  0  0
    6.9257   14.2539    7.1721 O   0  0  0  0  0  0  0  0  0  0  0  0
    7.1608   15.2313    6.1824 C   0  0  0  0  0  0  0  0  0  0  0  0
    5.7759   14.9737    5.6780 C   0  0  1  0  0  0  0  0  0  0  0  0
    5.6975   14.3025    4.3498 C   0  0  0  0  0  0  0  0  0  0  0  0
    6.1433   12.9448    4.0716 C   0  0  2  0  0  0  0  0  0  0  0  0
    7.6185   12.6742    4.1232 C   0  0  0  0  0  2  0  0  0  0  0  0
    5.6933   13.1923    2.6528 C   0  0  0  0  0  0  0  0  0  0  0  0
    5.2970   14.5316    3.1000 C   0  0  0  0  0  0  0  0  0  0  0  0
    5.3125   11.8675    4.7136 C   0  0  0  0  0  0  0  0  0  0  0  0
    4.6419   10.9865    3.6801 C   0  0  1  0  0  0  0  0  0  0  0  0
    5.3649   10.8512    2.3785 C   0  0  0  0  0  0  0  0  0  0  0  0
    5.6135    9.4395    2.7012 C   0  0  0  0  0  0  0  0  0  0  0  0
  1  2  1  0
  2  3  1  1
  2  4  1  0
  4  5  1  0
  5  6  1  0
  6  7  1  0
  7  8  1  1
  7  9  1  0
  9 10  1  0
 10 11  1  0
 11 12  1  0
 12 13  1  1
 12 14  1  0
 14 15  1  0
 15 16  1  0
 16 17  1  1
 16 18  1  0
 19 18  1  1
 19 20  1  0
 20 21  1  0
 22 21  1  1
 22 23  1  0
 23 24  1  0
 24 25  1  6
 24 26  1  0
 26 27  1  0
 24 28  1  0
 29 28  1  1
 29 30  1  0
 30 31  1  0
 29  1  1  0
  1 31  2  0
 22 19  1  0
 23 27  2  0
M  RAD  4   9   2  14   2  17   3  25   3
M  END
>  <docking_score>  (3) 
-4.0800000000000001

$$$$
