
     RDKit          3D

  8  8  0  0  0  0  0  0  0  0999 V2000
    5.8193   -0.4451   -7.5267 C   0  0  0  0  0  0  0  0  0  0  0  0
    6.5366    0.5192   -6.8274 O   0  0  0  0  0  0  0  0  0  0  0  0
    7.1642    0.3080   -5.6218 C   0  0  0  0  0  0  0  0  0  0  0  0
    7.0834   -0.8922   -5.0864 C   0  0  0  0  0  0  0  0  0  0  0  0
    6.3568   -1.9499   -5.7493 C   0  0  0  0  0  0  0  0  0  0  0  0
    5.7493   -1.7766   -6.8987 C   0  0  0  0  0  0  0  0  0  0  0  0
    5.0480   -2.8345   -7.5176 O   0  0  0  0  0  0  0  0  0  0  0  0
    4.5406   -3.9241   -6.7628 C   0  0  0  0  0  0  0  0  0  0  0  0
  1  2  1  0
  2  3  1  0
  3  4  2  0
  4  5  1  0
  5  6  2  0
  6  7  1  0
  7  8  1  0
  6  1  1  0
M  END
>  <docking_score>  (1) 
-4.117

$$$$

     RDKit          3D

  8  8  0  0  0  0  0  0  0  0999 V2000
    6.7518   -1.3430   -5.1863 C   0  0  0  0  0  0  0  0  0  0  0  0
    7.1264   -0.0249   -5.4224 O   0  0  0  0  0  0  0  0  0  0  0  0
    6.8193    0.6852   -6.5597 C   0  0  0  0  0  0  0  0  0  0  0  0
    6.1200    0.0781   -7.4958 C   0  0  0  0  0  0  0  0  0  0  0  0
    5.6917   -1.2910   -7.3277 C   0  0  0  0  0  0  0  0  0  0  0  0
    5.9704   -1.9914   -6.2544 C   0  0  0  0  0  0  0  0  0  0  0  0
    5.5348   -3.3285   -6.1250 O   0  0  0  0  0  0  0  0  0  0  0  0
    5.1941   -4.1064   -7.2621 C   0  0  0  0  0  0  0  0  0  0  0  0
  1  2  1  0
  2  3  1  0
  3  4  2  0
  4  5  1  0
  5  6  2  0
  6  7  1  0
  7  8  1  0
  6  1  1  0
M  END
>  <docking_score>  (2) 
-4.1130000000000004

$$$$

     RDKit          3D

  8  8  0  0  0  0  0  0  0  0999 V2000
    5.6491   -1.1517   -8.1381 C   0  0  0  0  0  0  0  0  0  0  0  0
    5.2689   -2.4340   -8.5183 O   0  0  0  0  0  0  0  0  0  0  0  0
    5.1352   -3.4991   -7.6582 C   0  0  0  0  0  0  0  0  0  0  0  0
    5.3839   -3.2955   -6.3813 C   0  0  0  0  0  0  0  0  0  0  0  0
    5.7842   -1.9921   -5.9048 C   0  0  0  0  0  0  0  0  0  0  0  0
    5.9195   -0.9596   -6.7022 C   0  0  0  0  0  0  0  0  0  0  0  0
    6.3130    0.3004   -6.2004 O   0  0  0  0  0  0  0  0  0  0  0  0
    6.4084    1.4347   -7.0482 C   0  0  0  0  0  0  0  0  0  0  0  0
  1  2  1  0
  2  3  1  0
  3  4  2  0
  4  5  1  0
  5  6  2  0
  6  7  1  0
  7  8  1  0
  6  1  1  0
M  END
>  <docking_score>  (3) 
-4.069

$$$$
