
     RDKit          3D

 48 51  0  0  0  0  0  0  0  0999 V2000
    7.5693   12.1255   11.8720 C   0  0  0  0  0  0  0  0  0  0  0  0
    8.6170   11.3173   11.5954 C   0  0  0  0  0  0  0  0  0  0  0  0
    9.9973   11.6104   11.1871 C   0  0  0  0  0  0  0  0  0  0  0  0
   10.2903   13.0779   11.1908 C   0  0  0  0  0  0  0  0  0  0  0  0
   10.0864   13.6415   12.5645 C   0  0  1  0  0  0  0  0  0  0  0  0
   11.0924   14.7661   12.7464 C   0  0  0  0  0  0  0  0  0  0  0  0
   10.8881   15.5389   14.0116 C   0  0  0  0  0  0  0  0  0  0  0  0
   12.4709   14.1396   12.7542 C   0  0  0  0  0  0  0  0  0  0  0  0
   10.9452   15.7344   11.5649 C   0  0  0  0  0  0  0  0  0  0  0  0
    9.4517   15.9947   11.3967 C   0  0  0  0  0  0  0  0  0  0  0  0
    8.6965   15.6498   12.6772 C   0  0  0  0  0  0  0  0  0  0  0  0
    8.6731   14.1442   12.7905 C   0  0  0  0  0  3  0  0  0  0  0  0
    7.7115   13.6048   11.7834 C   0  0  1  0  0  0  0  0  0  0  0  0
    8.2230   13.8524   10.3483 C   0  0  0  0  0  0  0  0  0  0  0  0
    6.3765   14.2724   11.9624 C   0  0  0  0  0  0  0  0  0  0  0  0
    5.7864   14.6151   10.6471 C   0  0  0  0  0  0  0  0  0  0  0  0
    4.7302   15.4353   10.6108 C   0  0  0  0  0  0  0  0  0  0  0  0
    4.1735   15.7530    9.2980 C   0  0  0  0  0  0  0  0  0  0  0  0
    4.0246   14.8604    8.4410 O   0  0  0  0  0  0  0  0  0  0  0  0
    4.1543   15.9829   11.7298 O   0  0  0  0  0  0  0  0  0  0  0  0
    3.9706   15.3096   12.9456 C   0  0  0  0  0  0  0  0  0  0  0  0
    4.2917   15.9137   14.0267 O   0  0  0  0  0  0  0  0  0  0  0  0
    3.4725   14.0560   13.0356 O   0  0  0  0  0  0  0  0  0  0  0  0
    2.3424   13.4777   12.4873 C   0  0  0  0  0  0  0  0  0  0  0  0
    2.6751   12.9212   11.1592 C   0  0  0  0  0  0  0  0  0  0  0  0
    3.0230   11.7106   10.8738 C   0  0  0  0  0  0  0  0  0  0  0  0
    3.1792   10.6020   11.7400 N   0  0  0  0  0  0  0  0  0  0  0  0
    2.8232    9.2924   11.2268 C   0  0  0  0  0  0  0  0  0  0  0  0
    3.5435    9.0578    9.9241 C   0  0  2  0  0  0  0  0  0  0  0  0
    2.7442    8.2976    8.9604 C   0  0  0  0  0  0  0  0  0  0  0  0
    2.4063    8.7138    7.7514 C   0  0  0  0  0  0  0  0  0  0  0  0
    2.8877   10.3166    7.0884 S   0  0  0  0  0  0  0  0  0  0  0  0
    4.2036    9.9893    5.9415 C   0  0  0  0  0  0  0  0  0  0  0  0
    5.0744    9.7664    5.1558 C   0  0  0  0  0  0  0  0  0  0  0  0
    3.6156   10.7133   13.0197 C   0  0  0  0  0  0  0  0  0  0  0  0
    4.5604   11.1327   13.7460 C   0  0  0  0  0  0  0  0  0  0  0  0
    5.7512   11.7803   13.2939 C   0  0  0  0  0  0  0  0  0  0  0  0
    6.4135   11.4176   12.2215 N   0  0  0  0  0  4  0  0  0  0  0  0
    5.9498   10.3595   11.4347 C   0  0  0  0  0  0  0  0  0  0  0  0
    5.6657    9.1178   11.8272 C   0  0  0  0  0  0  0  0  0  0  0  0
    5.0701    8.1238   10.3941 S   0  0  0  0  0  0  0  0  0  0  0  0
    4.3808   10.9184   15.2338 C   0  0  0  0  0  0  0  0  0  0  0  0
    4.9648   12.0608   15.9962 C   0  0  0  0  0  0  0  0  0  0  0  0
    4.2446   12.5116   17.0193 C   0  0  0  0  0  0  0  0  0  0  0  0
    3.3416   12.7053   17.9334 C   0  0  0  0  0  0  0  0  0  0  0  0
    2.3065   13.6199   17.6916 N   0  0  0  0  0  1  0  0  0  0  0  0
    3.4129   11.9627   19.1956 C   0  0  0  0  0  0  0  0  0  0  0  0
    4.4627   12.8601   20.3570 S   0  0  0  0  0  0  0  0  0  0  0  0
  1  2  2  0
  2  3  1  0
  3  4  1  0
  5  4  1  6
  5  6  1  0
  6  7  1  0
  6  8  1  0
  6  9  1  0
  9 10  1  0
 10 11  1  0
 11 12  1  0
 12 13  1  0
 13 14  1  6
 13 15  1  0
 15 16  1  0
 16 17  2  0
 17 18  1  0
 18 19  2  0
 17 20  1  0
 20 21  1  0
 21 22  2  0
 21 23  1  0
 23 24  1  0
 24 25  1  0
 25 26  2  3
 26 27  1  0
 27 28  1  0
 29 28  1  1
 29 30  1  0
 30 31  2  3
 31 32  1  0
 32 33  1  0
 33 34  3  0
 27 35  1  0
 35 36  2  3
 36 37  1  0
 37 38  2  3
 38 39  1  0
 39 40  2  3
 40 41  1  0
 36 42  1  0
 42 43  1  0
 43 44  2  0
 44 45  2  0
 45 46  1  0
 45 47  1  0
 47 48  1  0
 13  1  1  0
 38  1  1  0
 12  5  1  0
 41 29  1  0
M  CHG  2  38   1  46   1
M  RAD  2  12   2  46   2
M  END
>  <docking_score>  (1) 
0.81499999999999995

$$$$
