
     RDKit          3D

 30 32  0  0  0  0  0  0  0  0999 V2000
    8.4117   15.5524    6.7941 C   0  0  0  0  0  0  0  0  0  0  0  0
    6.9725   14.9991    6.5994 C   0  0  2  0  0  0  0  0  0  0  0  0
    5.9615   16.0749    6.3081 C   0  0  0  0  0  0  0  0  0  0  0  0
    6.6528   13.9402    7.6371 C   0  0  0  0  0  0  0  0  0  0  0  0
    5.7839   14.4852    8.7372 C   0  0  0  0  0  0  0  0  0  0  0  0
    5.4977   13.3724    9.7083 C   0  0  0  0  0  0  0  0  0  0  0  0
    5.9578   13.7002   11.1137 C   0  0  1  0  0  0  0  0  0  0  0  0
    4.7567   14.0809   11.9585 C   0  0  0  0  0  0  0  0  0  0  0  0
    6.6730   12.5409   11.7670 C   0  0  0  0  0  3  0  0  0  0  0  0
    6.0707   11.2060   11.3857 C   0  0  0  0  0  0  0  0  0  0  0  0
    4.6253   11.0912   11.7943 C   0  0  0  0  0  3  0  0  0  0  0  0
    3.7857   10.7809   10.5677 C   0  0  2  0  0  0  0  0  0  0  0  0
    2.3090   10.8333   10.9232 C   0  0  0  0  0  0  0  0  0  0  0  0
    4.1903    9.4334   10.0336 C   0  0  0  0  0  3  0  0  0  0  0  0
    3.6427    9.3085    8.6209 C   0  0  0  0  0  0  0  0  0  0  0  0
    3.8518    7.8962    8.0903 C   0  0  1  0  0  0  0  0  0  0  0  0
    2.5281    7.2960    7.9535 N   0  0  0  0  0  2  0  0  0  0  0  0
    4.4633    7.9759    6.7028 C   0  0  0  0  0  0  0  0  0  0  0  0
    3.7591    7.0430    5.7338 C   0  0  0  0  0  0  0  0  0  0  0  0
    3.1918    7.8170    4.5736 C   0  0  0  0  0  0  0  0  0  0  0  0
    4.1284    8.7617    4.1606 O   0  0  0  0  0  0  0  0  0  0  0  0
    3.3988    9.8613    3.6902 C   0  0  0  0  0  0  0  0  0  0  0  0
    4.1672   10.5653    2.7500 O   0  0  0  0  0  0  0  0  0  0  0  0
    3.8469   12.2385    3.0325 S   0  0  0  0  0  0  0  0  0  0  0  0
    5.0924   12.8040    4.2389 C   0  0  0  0  0  0  0  0  0  0  0  0
    6.3775   13.0263    3.4561 C   0  0  0  0  0  0  0  0  0  0  0  0
    6.7792   14.4595    3.6456 C   0  0  0  0  0  0  0  0  0  0  0  0
    8.0828   14.6307    4.3674 C   0  0  2  0  0  0  0  0  0  0  0  0
    8.5766   13.4444    5.2394 C   0  0  0  0  0  0  0  0  0  0  0  0
    8.0722   14.6389    5.7834 C   0  0  1  0  0  0  0  0  0  0  0  0
  1  2  1  0
  2  3  1  6
  2  4  1  0
  4  5  1  0
  5  6  1  0
  6  7  1  0
  7  8  1  1
  7  9  1  0
  9 10  1  0
 10 11  1  0
 11 12  1  0
 12 13  1  1
 12 14  1  0
 14 15  1  0
 15 16  1  0
 16 17  1  6
 16 18  1  0
 18 19  1  0
 19 20  1  0
 20 21  1  0
 21 22  1  0
 22 23  1  0
 23 24  1  0
 24 25  1  0
 25 26  1  0
 26 27  1  0
 28 27  1  6
 28 29  1  0
 28 30  1  0
 30  1  1  1
 30  2  1  0
 30 29  1  0
M  RAD  4   9   2  11   2  14   2  17   2
M  END
>  <docking_score>  (1) 
-3.7240000000000002

$$$$

     RDKit          3D

 30 32  0  0  0  0  0  0  0  0999 V2000
    2.7029   10.3979    4.3329 C   0  0  0  0  0  0  0  0  0  0  0  0
    4.0941   10.5407    5.0108 C   0  0  2  0  0  0  0  0  0  0  0  0
    5.1660    9.7300    4.3337 C   0  0  0  0  0  0  0  0  0  0  0  0
    3.9694   10.4934    6.5216 C   0  0  0  0  0  0  0  0  0  0  0  0
    4.3681    9.1509    7.0700 C   0  0  0  0  0  0  0  0  0  0  0  0
    4.2365    9.1945    8.5680 C   0  0  0  0  0  0  0  0  0  0  0  0
    3.2849    8.1403    9.0948 C   0  0  1  0  0  0  0  0  0  0  0  0
    4.0838    6.9976    9.6926 C   0  0  0  0  0  0  0  0  0  0  0  0
    2.3470    8.6887   10.1445 C   0  0  0  0  0  3  0  0  0  0  0  0
    3.0162    9.7149   11.0329 C   0  0  0  0  0  0  0  0  0  0  0  0
    4.1946    9.1461   11.7792 C   0  0  0  0  0  3  0  0  0  0  0  0
    5.4295    9.9699   11.4596 C   0  0  2  0  0  0  0  0  0  0  0  0
    6.6611    9.3129   12.0606 C   0  0  0  0  0  0  0  0  0  0  0  0
    5.2253   11.3677   11.9783 C   0  0  0  0  0  3  0  0  0  0  0  0
    6.2655   12.2636   11.3253 C   0  0  0  0  0  0  0  0  0  0  0  0
    6.2393   13.6536   11.9477 C   0  0  1  0  0  0  0  0  0  0  0  0
    7.5005   13.8197   12.6638 N   0  0  0  0  0  2  0  0  0  0  0  0
    6.2030   14.6901   10.8388 C   0  0  0  0  0  0  0  0  0  0  0  0
    7.1996   15.8070   11.0932 C   0  0  0  0  0  0  0  0  0  0  0  0
    8.1840   15.9049    9.9582 C   0  0  0  0  0  0  0  0  0  0  0  0
    7.4980   15.7701    8.7534 O   0  0  0  0  0  0  0  0  0  0  0  0
    8.3784   15.1362    7.8669 C   0  0  0  0  0  0  0  0  0  0  0  0
    8.0424   15.4797    6.5481 O   0  0  0  0  0  0  0  0  0  0  0  0
    8.2721   14.0473    5.6114 S   0  0  0  0  0  0  0  0  0  0  0  0
    6.6759   13.1651    5.6208 C   0  0  0  0  0  0  0  0  0  0  0  0
    5.7905   13.8698    4.6044 C   0  0  0  0  0  0  0  0  0  0  0  0
    5.3821   12.8528    3.5795 C   0  0  0  0  0  0  0  0  0  0  0  0
    3.9066   12.5850    3.5494 C   0  0  2  0  0  0  0  0  0  0  0  0
    3.0896   12.9478    4.8191 C   0  0  0  0  0  0  0  0  0  0  0  0
    3.3786   11.6236    4.4448 C   0  0  1  0  0  0  0  0  0  0  0  0
  1  2  1  0
  2  3  1  6
  2  4  1  0
  4  5  1  0
  5  6  1  0
  6  7  1  0
  7  8  1  1
  7  9  1  0
  9 10  1  0
 10 11  1  0
 11 12  1  0
 12 13  1  1
 12 14  1  0
 14 15  1  0
 15 16  1  0
 16 17  1  6
 16 18  1  0
 18 19  1  0
 19 20  1  0
 20 21  1  0
 21 22  1  0
 22 23  1  0
 23 24  1  0
 24 25  1  0
 25 26  1  0
 26 27  1  0
 28 27  1  1
 28 29  1  0
 28 30  1  0
 30  1  1  6
 30  2  1  0
 30 29  1  0
M  RAD  4   9   2  11   2  14   2  17   2
M  END
>  <docking_score>  (2) 
-1.1910000000000001

$$$$
