
     RDKit          3D

 23 24  0  0  0  0  0  0  0  0999 V2000
   19.2855   -8.2765   -3.6292 C   0  0  0  0  0  0  0  0  0  0  0  0
   19.5098   -6.8388   -4.1111 C   0  0  1  0  0  0  0  0  0  0  0  0
   20.7711   -6.8909   -4.9580 C   0  0  0  0  0  0  0  0  0  0  0  0
   20.3906   -7.0963   -6.4129 C   0  0  2  0  0  0  0  0  0  0  0  0
   20.1261   -5.9050   -7.0669 O   0  0  0  0  0  0  0  0  0  0  0  0
   19.2733   -8.1098   -6.5666 C   0  0  2  0  0  0  0  0  0  0  0  0
   19.0026   -8.1933   -7.9361 O   0  0  0  0  0  0  0  0  0  0  0  0
   17.9909   -7.6186   -5.9052 C   0  0  1  0  0  0  0  0  0  0  0  0
   17.4244   -8.6748   -5.1791 O   0  0  0  0  0  0  0  0  0  0  0  0
   18.3747   -6.4774   -5.0259 C   0  0  1  0  0  0  0  0  0  0  0  0
   17.2808   -5.8205   -4.3765 N   0  0  0  0  0  0  0  0  0  0  0  0
   17.5522   -4.3867   -4.3429 C   0  0  1  0  0  0  0  0  0  0  0  0
   16.6192   -3.7359   -5.2923 C   0  0  1  0  0  0  0  0  0  0  0  0
   15.4083   -4.6128   -5.5454 C   0  0  0  0  0  0  0  0  0  0  0  0
   16.2218   -2.3293   -4.9620 C   0  0  1  0  0  0  0  0  0  0  0  0
   15.2254   -1.9224   -5.8246 O   0  0  0  0  0  0  0  0  0  0  0  0
   15.8448   -1.5746   -6.9492 O   0  0  0  0  0  0  0  0  0  0  0  0
   15.7256   -2.3798   -3.5073 C   0  0  2  0  0  0  0  0  0  0  0  0
   15.0427   -1.2384   -3.1443 O   0  0  0  0  0  0  0  0  0  0  0  0
   16.9757   -2.5710   -2.6886 C   0  0  2  0  0  0  0  0  0  0  0  0
   17.8446   -1.5226   -3.0301 O   0  0  0  0  0  0  0  0  0  0  0  0
   17.6686   -3.8489   -2.9894 C   0  0  1  0  0  0  0  0  0  0  0  0
   17.3242   -4.8296   -2.0524 O   0  0  0  0  0  0  0  0  0  0  0  0
  2  1  1  6
  2  3  1  0
  3  4  1  0
  4  5  1  1
  4  6  1  0
  6  7  1  6
  6  8  1  0
  8  9  1  1
  8 10  1  0
 10 11  1  1
 12 11  1  1
 12 13  1  0
 13 14  1  1
 13 15  1  0
 15 16  1  6
 16 17  1  0
 15 18  1  0
 18 19  1  1
 18 20  1  0
 20 21  1  6
 20 22  1  0
 22 23  1  1
 10  2  1  0
 22 12  1  0
M  END
>  <docking_score>  (1) 
-4.2709999999999999

$$$$

     RDKit          3D

 23 24  0  0  0  0  0  0  0  0999 V2000
   18.3322   -3.3753   -1.5052 C   0  0  0  0  0  0  0  0  0  0  0  0
   17.0842   -3.7332   -2.3200 C   0  0  1  0  0  0  0  0  0  0  0  0
   16.3132   -2.4313   -2.4670 C   0  0  0  0  0  0  0  0  0  0  0  0
   16.7114   -1.7562   -3.7667 C   0  0  2  0  0  0  0  0  0  0  0  0
   15.9655   -2.1984   -4.8461 O   0  0  0  0  0  0  0  0  0  0  0  0
   18.2052   -1.8413   -4.0125 C   0  0  2  0  0  0  0  0  0  0  0  0
   18.4396   -1.2088   -5.2375 O   0  0  0  0  0  0  0  0  0  0  0  0
   18.6524   -3.2883   -4.1845 C   0  0  1  0  0  0  0  0  0  0  0  0
   19.8278   -3.4880   -3.4482 O   0  0  0  0  0  0  0  0  0  0  0  0
   17.5328   -4.1418   -3.6939 C   0  0  1  0  0  0  0  0  0  0  0  0
   17.7319   -5.5506   -3.8542 N   0  0  0  0  0  0  0  0  0  0  0  0
   18.0463   -5.8203   -5.2538 C   0  0  1  0  0  0  0  0  0  0  0  0
   19.2239   -6.7191   -5.2790 C   0  0  1  0  0  0  0  0  0  0  0  0
   19.3628   -7.4633   -3.9652 C   0  0  0  0  0  0  0  0  0  0  0  0
   19.3155   -7.6482   -6.4511 C   0  0  1  0  0  0  0  0  0  0  0  0
   20.3528   -8.5350   -6.2502 O   0  0  0  0  0  0  0  0  0  0  0  0
   21.1556   -8.3917   -7.3010 O   0  0  0  0  0  0  0  0  0  0  0  0
   17.9576   -8.3679   -6.5045 C   0  0  2  0  0  0  0  0  0  0  0  0
   17.9781   -9.4696   -7.3331 O   0  0  0  0  0  0  0  0  0  0  0  0
   16.9927   -7.3176   -6.9898 C   0  0  2  0  0  0  0  0  0  0  0  0
   17.5046   -6.8308   -8.2029 O   0  0  0  0  0  0  0  0  0  0  0  0
   16.8758   -6.1702   -6.0553 C   0  0  1  0  0  0  0  0  0  0  0  0
   15.7559   -6.3184   -5.2293 O   0  0  0  0  0  0  0  0  0  0  0  0
  2  1  1  1
  2  3  1  0
  3  4  1  0
  4  5  1  6
  4  6  1  0
  6  7  1  6
  6  8  1  0
  8  9  1  1
  8 10  1  0
 10 11  1  1
 12 11  1  1
 12 13  1  0
 13 14  1  1
 13 15  1  0
 15 16  1  1
 16 17  1  0
 15 18  1  0
 18 19  1  6
 18 20  1  0
 20 21  1  6
 20 22  1  0
 22 23  1  1
 10  2  1  0
 22 12  1  0
M  END
>  <docking_score>  (2) 
-3.9500000000000002

$$$$

     RDKit          3D

 23 24  0  0  0  0  0  0  0  0999 V2000
   20.8602   -6.5227   -6.9743 C   0  0  0  0  0  0  0  0  0  0  0  0
   19.3384   -6.5864   -7.1461 C   0  0  1  0  0  0  0  0  0  0  0  0
   18.9973   -8.0677   -7.1614 C   0  0  0  0  0  0  0  0  0  0  0  0
   18.6467   -8.5166   -5.7545 C   0  0  2  0  0  0  0  0  0  0  0  0
   17.3106   -8.3188   -5.4504 O   0  0  0  0  0  0  0  0  0  0  0  0
   19.5784   -7.9139   -4.7211 C   0  0  2  0  0  0  0  0  0  0  0  0
   19.1427   -8.3819   -3.4773 O   0  0  0  0  0  0  0  0  0  0  0  0
   19.4444   -6.3962   -4.6790 C   0  0  1  0  0  0  0  0  0  0  0  0
   20.7257   -5.8314   -4.6230 O   0  0  0  0  0  0  0  0  0  0  0  0
   18.7110   -5.9984   -5.9146 C   0  0  1  0  0  0  0  0  0  0  0  0
   18.4102   -4.6023   -6.0157 N   0  0  0  0  0  0  0  0  0  0  0  0
   17.1456   -4.3476   -5.3327 C   0  0  1  0  0  0  0  0  0  0  0  0
   17.4211   -3.4002   -4.2273 C   0  0  1  0  0  0  0  0  0  0  0  0
   18.6978   -2.6245   -4.4871 C   0  0  0  0  0  0  0  0  0  0  0  0
   16.2924   -2.4918   -3.8447 C   0  0  1  0  0  0  0  0  0  0  0  0
   16.7462   -1.5580   -2.9368 O   0  0  0  0  0  0  0  0  0  0  0  0
   16.0128   -1.7367   -1.8416 O   0  0  0  0  0  0  0  0  0  0  0  0
   15.8409   -1.8317   -5.1582 C   0  0  2  0  0  0  0  0  0  0  0  0
   15.0168   -0.7470   -4.9459 O   0  0  0  0  0  0  0  0  0  0  0  0
   15.1392   -2.9316   -5.9115 C   0  0  2  0  0  0  0  0  0  0  0  0
   14.1322   -3.4205   -5.0645 O   0  0  0  0  0  0  0  0  0  0  0  0
   16.0396   -4.0639   -6.2443 C   0  0  1  0  0  0  0  0  0  0  0  0
   16.5163   -3.9469   -7.5548 O   0  0  0  0  0  0  0  0  0  0  0  0
  2  1  1  1
  2  3  1  0
  3  4  1  0
  4  5  1  1
  4  6  1  0
  6  7  1  1
  6  8  1  0
  8  9  1  6
  8 10  1  0
 10 11  1  6
 12 11  1  6
 12 13  1  0
 13 14  1  6
 13 15  1  0
 15 16  1  1
 16 17  1  0
 15 18  1  0
 18 19  1  1
 18 20  1  0
 20 21  1  1
 20 22  1  0
 22 23  1  6
 10  2  1  0
 22 12  1  0
M  END
>  <docking_score>  (3) 
-3.7709999999999999

$$$$
