
     RDKit          3D

 23 24  0  0  0  0  0  0  0  0999 V2000
   16.4864   -1.8903   -1.9791 C   0  0  0  0  0  0  0  0  0  0  0  0
   17.7838   -1.5443   -2.6788 C   0  0  1  0  0  0  0  0  0  0  0  0
   18.9316   -1.9238   -1.8202 C   0  0  0  0  0  0  0  0  0  0  0  0
   20.1743   -1.9813   -2.6582 C   0  0  2  0  0  0  0  0  0  0  0  0
   20.3365   -0.7545   -3.2969 O   0  0  0  0  0  0  0  0  0  0  0  0
   20.0242   -3.1162   -3.6331 C   0  0  2  0  0  0  0  0  0  0  0  0
   20.8720   -2.8764   -4.7047 O   0  0  0  0  0  0  0  0  0  0  0  0
   18.6009   -3.4031   -4.0279 C   0  0  1  0  0  0  0  0  0  0  0  0
   18.0917   -4.3352   -3.1255 O   0  0  0  0  0  0  0  0  0  0  0  0
   17.8073   -2.1371   -4.0754 C   0  0  1  0  0  0  0  0  0  0  0  0
   16.4295   -2.3369   -4.4296 N   0  0  0  0  0  0  0  0  0  0  0  0
   16.1278   -3.3625   -5.3473 C   0  0  1  0  0  0  0  0  0  0  0  0
   15.0051   -4.2843   -4.9757 C   0  0  0  0  0  0  0  0  0  0  0  0
   14.9470   -5.3699   -6.0280 C   0  0  2  0  0  0  0  0  0  0  0  0
   13.6610   -5.4248   -6.6066 O   0  0  0  0  0  0  0  0  0  0  0  0
   15.3292   -6.7237   -5.4763 C   0  0  0  0  0  0  0  0  0  0  0  0
   14.6234   -7.0189   -4.2936 O   0  0  0  0  0  0  0  0  0  0  0  0
   15.9329   -5.0691   -7.1511 C   0  0  1  0  0  0  0  0  0  0  0  0
   15.8950   -6.0701   -8.1115 O   0  0  0  0  0  0  0  0  0  0  0  0
   15.6357   -3.7202   -7.7707 C   0  0  2  0  0  0  0  0  0  0  0  0
   16.6441   -3.4999   -8.7380 O   0  0  0  0  0  0  0  0  0  0  0  0
   15.8473   -2.6755   -6.6941 C   0  0  1  0  0  0  0  0  0  0  0  0
   14.7443   -1.8253   -6.5864 O   0  0  0  0  0  0  0  0  0  0  0  0
  2  1  1  1
  2  3  1  0
  3  4  1  0
  4  5  1  6
  4  6  1  0
  6  7  1  6
  6  8  1  0
  8  9  1  1
  8 10  1  0
 10 11  1  1
 12 11  1  1
 12 13  1  0
 13 14  1  0
 14 15  1  6
 14 16  1  0
 16 17  1  0
 14 18  1  0
 18 19  1  6
 18 20  1  0
 20 21  1  6
 20 22  1  0
 22 23  1  1
 10  2  1  0
 22 12  1  0
M  END
>  <docking_score>  (1) 
-4.7789999999999999

$$$$

     RDKit          3D

 23 24  0  0  0  0  0  0  0  0999 V2000
   16.6193   -4.1096   -1.6337 C   0  0  0  0  0  0  0  0  0  0  0  0
   17.5801   -2.9611   -1.8574 C   0  0  1  0  0  0  0  0  0  0  0  0
   18.9542   -3.3794   -1.4889 C   0  0  0  0  0  0  0  0  0  0  0  0
   19.9382   -2.4240   -2.0961 C   0  0  2  0  0  0  0  0  0  0  0  0
   19.6177   -1.1335   -1.6824 O   0  0  0  0  0  0  0  0  0  0  0  0
   19.8715   -2.5768   -3.5905 C   0  0  2  0  0  0  0  0  0  0  0  0
   20.3531   -1.4087   -4.1632 O   0  0  0  0  0  0  0  0  0  0  0  0
   18.5232   -3.0029   -4.1050 C   0  0  1  0  0  0  0  0  0  0  0  0
   18.5022   -4.3962   -4.1320 O   0  0  0  0  0  0  0  0  0  0  0  0
   17.4347   -2.4150   -3.2657 C   0  0  1  0  0  0  0  0  0  0  0  0
   16.1156   -2.7947   -3.6891 N   0  0  0  0  0  0  0  0  0  0  0  0
   15.9759   -3.3782   -4.9639 C   0  0  1  0  0  0  0  0  0  0  0  0
   15.1928   -4.6550   -5.0336 C   0  0  0  0  0  0  0  0  0  0  0  0
   15.2841   -5.1620   -6.4562 C   0  0  2  0  0  0  0  0  0  0  0  0
   13.9932   -5.3428   -6.9969 O   0  0  0  0  0  0  0  0  0  0  0  0
   16.0766   -6.4446   -6.5576 C   0  0  0  0  0  0  0  0  0  0  0  0
   16.0596   -7.1610   -5.3449 O   0  0  0  0  0  0  0  0  0  0  0  0
   16.0008   -4.1428   -7.3344 C   0  0  1  0  0  0  0  0  0  0  0  0
   16.1013   -4.6099   -8.6372 O   0  0  0  0  0  0  0  0  0  0  0  0
   15.2820   -2.8110   -7.2962 C   0  0  2  0  0  0  0  0  0  0  0  0
   16.0618   -1.9199   -8.0700 O   0  0  0  0  0  0  0  0  0  0  0  0
   15.3513   -2.3044   -5.8702 C   0  0  1  0  0  0  0  0  0  0  0  0
   14.0879   -1.9427   -5.3968 O   0  0  0  0  0  0  0  0  0  0  0  0
  2  1  1  6
  2  3  1  0
  3  4  1  0
  4  5  1  6
  4  6  1  0
  6  7  1  6
  6  8  1  0
  8  9  1  1
  8 10  1  0
 10 11  1  6
 12 11  1  1
 12 13  1  0
 13 14  1  0
 14 15  1  6
 14 16  1  0
 16 17  1  0
 14 18  1  0
 18 19  1  6
 18 20  1  0
 20 21  1  6
 20 22  1  0
 22 23  1  1
 10  2  1  0
 22 12  1  0
M  END
>  <docking_score>  (2) 
-4.6790000000000003

$$$$

     RDKit          3D

 23 24  0  0  0  0  0  0  0  0999 V2000
   16.9016   -3.6011   -1.8762 C   0  0  0  0  0  0  0  0  0  0  0  0
   16.0725   -3.2150   -3.0828 C   0  0  1  0  0  0  0  0  0  0  0  0
   15.7401   -1.7713   -3.0200 C   0  0  0  0  0  0  0  0  0  0  0  0
   15.3057   -1.3075   -4.3787 C   0  0  2  0  0  0  0  0  0  0  0  0
   14.2468   -2.1062   -4.8031 O   0  0  0  0  0  0  0  0  0  0  0  0
   16.4910   -1.3954   -5.2997 C   0  0  2  0  0  0  0  0  0  0  0  0
   16.0179   -1.4740   -6.6015 O   0  0  0  0  0  0  0  0  0  0  0  0
   17.4728   -2.4762   -4.9365 C   0  0  1  0  0  0  0  0  0  0  0  0
   18.4072   -1.9222   -4.0633 O   0  0  0  0  0  0  0  0  0  0  0  0
   16.7594   -3.6575   -4.3615 C   0  0  1  0  0  0  0  0  0  0  0  0
   17.6384   -4.7254   -3.9739 N   0  0  0  0  0  0  0  0  0  0  0  0
   17.8434   -5.7750   -4.8912 C   0  0  1  0  0  0  0  0  0  0  0  0
   18.3683   -7.0622   -4.3292 C   0  0  0  0  0  0  0  0  0  0  0  0
   18.6325   -7.9884   -5.4962 C   0  0  2  0  0  0  0  0  0  0  0  0
   17.9258   -9.1989   -5.3322 O   0  0  0  0  0  0  0  0  0  0  0  0
   20.1057   -8.2658   -5.6855 C   0  0  0  0  0  0  0  0  0  0  0  0
   20.8091   -8.1818   -4.4679 O   0  0  0  0  0  0  0  0  0  0  0  0
   18.1438   -7.3546   -6.7935 C   0  0  1  0  0  0  0  0  0  0  0  0
   18.3980   -8.1934   -7.8695 O   0  0  0  0  0  0  0  0  0  0  0  0
   16.6676   -7.0313   -6.7029 C   0  0  2  0  0  0  0  0  0  0  0  0
   16.3317   -6.3800   -7.9129 O   0  0  0  0  0  0  0  0  0  0  0  0
   16.5010   -5.9988   -5.6068 C   0  0  1  0  0  0  0  0  0  0  0  0
   15.5192   -6.3834   -4.6907 O   0  0  0  0  0  0  0  0  0  0  0  0
  2  1  1  1
  2  3  1  0
  3  4  1  0
  4  5  1  6
  4  6  1  0
  6  7  1  6
  6  8  1  0
  8  9  1  1
  8 10  1  0
 10 11  1  1
 12 11  1  1
 12 13  1  0
 13 14  1  0
 14 15  1  1
 14 16  1  0
 16 17  1  0
 14 18  1  0
 18 19  1  6
 18 20  1  0
 20 21  1  6
 20 22  1  0
 22 23  1  1
 10  2  1  0
 22 12  1  0
M  END
>  <docking_score>  (3) 
-4.6180000000000003

$$$$
