
     RDKit          3D

 22 23  0  0  0  0  0  0  0  0999 V2000
   18.0286   -5.4324   -6.2353 C   0  0  0  0  0  0  0  0  0  0  0  0
   17.6417   -6.5602   -7.0889 O   0  0  0  0  0  0  0  0  0  0  0  0
   16.6160   -7.2977   -6.5157 C   0  0  0  0  0  3  0  0  0  0  0  0
   16.6981   -7.3526   -5.1203 O   0  0  0  0  0  0  0  0  0  0  0  0
   15.6264   -6.7404   -4.5060 C   0  0  2  0  0  0  0  0  0  0  0  0
   14.6987   -6.1782   -5.5803 C   0  0  0  0  0  0  0  0  0  0  0  0
   16.1241   -5.5729   -3.6562 C   0  0  0  0  0  3  0  0  0  0  0  0
   16.7749   -4.5191   -4.4714 C   0  0  1  0  0  0  0  0  0  0  0  0
   18.1170   -4.2008   -4.1932 C   0  0  0  0  0  3  0  0  0  0  0  0
   18.4655   -3.2966   -2.9814 C   0  0  0  0  0  0  0  0  0  0  0  0
   19.5930   -4.0243   -2.3040 C   0  0  2  0  0  0  0  0  0  0  0  0
   19.9039   -3.2715   -0.9340 C   0  0  0  0  0  0  0  0  0  0  0  0
   20.7205   -3.2990   -2.2587 O   0  0  0  0  0  0  0  0  0  0  0  0
   16.6058   -4.7482   -6.0255 C   0  0  1  0  0  0  0  0  0  0  0  0
   16.9325   -3.4962   -6.6366 O   0  0  0  0  0  0  0  0  0  0  0  0
   15.6955   -2.9149   -6.8872 C   0  0  0  0  0  3  0  0  0  0  0  0
   15.4583   -1.5332   -6.5908 C   0  0  0  0  0  3  0  0  0  0  0  0
   14.8063   -1.2679   -5.2754 C   0  0  2  0  0  0  0  0  0  0  0  0
   13.9702   -0.0143   -5.4533 C   0  0  0  0  0  2  0  0  0  0  0  0
   15.7415   -1.1738   -4.2661 O   0  0  0  0  0  0  0  0  0  0  0  0
   15.2228   -1.7352   -3.1905 O   0  0  0  0  0  0  0  0  0  0  0  0
   15.8070   -1.2461   -2.1046 O   0  0  0  0  0  0  0  0  0  0  0  0
  1  2  1  0
  2  3  1  0
  3  4  1  0
  4  5  1  0
  5  6  1  6
  5  7  1  0
  7  8  1  0
  8  9  1  6
  9 10  1  0
 11 10  1  6
 11 12  1  0
 11 13  1  0
  8 14  1  0
 14 15  1  6
 15 16  1  0
 16 17  1  0
 17 18  1  0
 18 19  1  6
 18 20  1  0
 20 21  1  0
 21 22  1  0
 14  1  1  0
 13 12  1  0
M  RAD  6   3   2   7   2   9   2  16   2  17   2  19   3
M  END
>  <docking_score>  (1) 
-3.919

$$$$

     RDKit          3D

 22 23  0  0  0  0  0  0  0  0999 V2000
   16.3278   -1.6939   -3.0789 C   0  0  0  0  0  0  0  0  0  0  0  0
   14.9185   -1.2991   -3.1679 O   0  0  0  0  0  0  0  0  0  0  0  0
   14.4927   -1.2439   -4.4870 C   0  0  0  0  0  3  0  0  0  0  0  0
   15.4927   -0.8125   -5.3650 O   0  0  0  0  0  0  0  0  0  0  0  0
   15.8460   -1.7837   -6.2775 C   0  0  2  0  0  0  0  0  0  0  0  0
   15.0215   -3.0392   -6.0042 C   0  0  0  0  0  0  0  0  0  0  0  0
   17.3202   -2.1405   -6.0978 C   0  0  0  0  0  3  0  0  0  0  0  0
   17.6010   -2.7228   -4.7634 C   0  0  1  0  0  0  0  0  0  0  0  0
   18.5254   -2.0620   -3.9336 C   0  0  0  0  0  3  0  0  0  0  0  0
   19.8707   -1.5564   -4.5181 C   0  0  0  0  0  0  0  0  0  0  0  0
   19.8572   -0.0821   -4.2246 C   0  0  2  0  0  0  0  0  0  0  0  0
   21.3518    0.4546   -4.3621 C   0  0  0  0  0  0  0  0  0  0  0  0
   20.4946    0.2217   -3.0840 O   0  0  0  0  0  0  0  0  0  0  0  0
   16.2904   -3.0346   -3.9378 C   0  0  1  0  0  0  0  0  0  0  0  0
   16.6986   -3.9159   -2.8868 O   0  0  0  0  0  0  0  0  0  0  0  0
   16.1602   -5.1434   -3.2534 C   0  0  0  0  0  3  0  0  0  0  0  0
   16.9124   -6.0689   -4.0476 C   0  0  0  0  0  3  0  0  0  0  0  0
   16.1364   -6.7722   -5.1102 C   0  0  2  0  0  0  0  0  0  0  0  0
   14.7164   -6.9036   -4.5918 C   0  0  0  0  0  2  0  0  0  0  0  0
   16.7217   -7.9768   -5.4394 O   0  0  0  0  0  0  0  0  0  0  0  0
   17.3763   -7.8037   -6.5720 O   0  0  0  0  0  0  0  0  0  0  0  0
   16.7357   -6.9225   -7.3288 O   0  0  0  0  0  0  0  0  0  0  0  0
  1  2  1  0
  2  3  1  0
  3  4  1  0
  4  5  1  0
  5  6  1  1
  5  7  1  0
  7  8  1  0
  8  9  1  1
  9 10  1  0
 11 10  1  1
 11 12  1  0
 11 13  1  0
  8 14  1  0
 14 15  1  1
 15 16  1  0
 16 17  1  0
 17 18  1  0
 18 19  1  1
 18 20  1  0
 20 21  1  0
 21 22  1  0
 14  1  1  0
 13 12  1  0
M  RAD  6   3   2   7   2   9   2  16   2  17   2  19   3
M  END
>  <docking_score>  (2) 
-3.8410000000000002

$$$$

     RDKit          3D

 22 23  0  0  0  0  0  0  0  0999 V2000
    7.0681   11.1807    4.5225 C   0  0  0  0  0  0  0  0  0  0  0  0
    7.7703   11.3976    3.2537 O   0  0  0  0  0  0  0  0  0  0  0  0
    6.9309   11.1845    2.1701 C   0  0  0  0  0  3  0  0  0  0  0  0
    5.9984   10.1662    2.3949 O   0  0  0  0  0  0  0  0  0  0  0  0
    4.7003   10.6307    2.3865 C   0  0  2  0  0  0  0  0  0  0  0  0
    4.7187   12.1386    2.1485 C   0  0  0  0  0  0  0  0  0  0  0  0
    4.0590   10.3773    3.7493 C   0  0  0  0  0  3  0  0  0  0  0  0
    4.7417   11.1143    4.8398 C   0  0  1  0  0  0  0  0  0  0  0  0
    5.2946   10.3693    5.8978 C   0  0  0  0  0  3  0  0  0  0  0  0
    4.7459    8.9544    6.2211 C   0  0  0  0  0  0  0  0  0  0  0  0
    4.1532    9.1053    7.5942 C   0  0  2  0  0  0  0  0  0  0  0  0
    3.5311    7.6986    8.0124 C   0  0  0  0  0  0  0  0  0  0  0  0
    2.8148    9.0144    7.5903 O   0  0  0  0  0  0  0  0  0  0  0  0
    5.8173   12.1434    4.3103 C   0  0  1  0  0  0  0  0  0  0  0  0
    6.0905   13.0152    5.4118 O   0  0  0  0  0  0  0  0  0  0  0  0
    6.2585   14.2601    4.8177 C   0  0  0  0  0  3  0  0  0  0  0  0
    7.5474   14.8841    4.7692 C   0  0  0  0  0  3  0  0  0  0  0  0
    7.8129   15.7008    3.5492 C   0  0  2  0  0  0  0  0  0  0  0  0
    7.3221   14.8843    2.3682 C   0  0  0  0  0  2  0  0  0  0  0  0
    9.1435   16.0539    3.4662 O   0  0  0  0  0  0  0  0  0  0  0  0
    9.7267   15.2119    2.6343 O   0  0  0  0  0  0  0  0  0  0  0  0
   10.7426   14.6137    3.2424 O   0  0  0  0  0  0  0  0  0  0  0  0
  1  2  1  0
  2  3  1  0
  3  4  1  0
  4  5  1  0
  5  6  1  1
  5  7  1  0
  7  8  1  0
  8  9  1  1
  9 10  1  0
 11 10  1  6
 11 12  1  0
 11 13  1  0
  8 14  1  0
 14 15  1  1
 15 16  1  0
 16 17  1  0
 17 18  1  0
 18 19  1  6
 18 20  1  0
 20 21  1  0
 21 22  1  0
 14  1  1  0
 13 12  1  0
M  RAD  6   3   2   7   2   9   2  16   2  17   2  19   3
M  END
>  <docking_score>  (3) 
-3.6749999999999998

$$$$
