
     RDKit          3D

 87 90  0  0  0  0  0  0  0  0999 V2000
    5.2872    9.6547    2.2371 C   0  0  0  0  0  0  0  0  0  0  0  0
    5.4866    8.5790    1.3565 O   0  0  0  0  0  0  0  0  0  0  0  0
    5.3138    7.2578    1.7640 C   0  0  0  0  0  0  0  0  0  0  0  0
    4.8901    6.9489    3.0399 C   0  0  0  0  0  0  0  0  0  0  0  0
    4.7260    5.6473    3.4269 C   0  0  0  0  0  0  0  0  0  0  0  0
    4.9928    4.6432    2.5120 C   0  0  0  0  0  0  0  0  0  0  0  0
    5.4211    4.9656    1.2213 C   0  0  0  0  0  0  0  0  0  0  0  0
    5.5903    6.2669    0.8209 C   0  0  0  0  0  0  0  0  0  0  0  0
    6.0106    6.6332   -0.4432 O   0  0  0  0  0  0  0  0  0  0  0  0
    7.1817    6.0524   -1.0145 C   0  0  1  0  0  0  0  0  0  0  0  0
    7.6086    4.8226   -0.2380 C   0  0  0  0  0  0  0  0  0  0  0  0
    8.9942    4.9409    0.2029 N   0  0  0  0  0  0  0  0  0  0  0  0
    9.5638    6.2133   -0.1906 C   0  0  0  0  0  3  0  0  0  0  0  0
   10.9474    6.1262   -0.7400 C   0  0  0  0  0  0  0  0  0  0  0  0
   11.0100    5.9331   -2.2394 C   0  0  0  0  0  0  0  0  0  0  0  0
   11.5157    4.5821   -2.6178 C   0  0  2  0  0  0  0  0  0  0  0  0
   12.8131    4.3652   -1.8419 C   0  0  0  0  0  0  0  0  0  0  0  0
   11.8575    4.4607   -4.0872 C   0  0  2  0  0  0  0  0  0  0  0  0
   13.1863    4.9315   -4.2499 O   0  0  0  0  0  0  0  0  0  0  0  0
   10.9974    5.2633   -4.9621 C   0  0  0  0  0  0  0  0  0  0  0  0
   10.2545    4.6611   -5.8534 C   0  0  0  0  0  0  0  0  0  0  0  0
    9.2097    4.1608   -6.4924 C   0  0  0  0  0  0  0  0  0  0  0  0
    8.1111    3.5365   -5.7914 C   0  0  0  0  0  0  0  0  0  0  0  0
    7.4482    2.5423   -6.3227 C   0  0  0  0  0  0  0  0  0  0  0  0
    6.8989    1.3683   -6.4044 C   0  0  0  0  0  0  0  0  0  0  0  0
    6.4280    0.1607   -6.1877 C   0  0  0  0  0  0  0  0  0  0  0  0
    5.1426   -0.2269   -6.8019 C   0  0  0  0  0  0  0  0  0  0  0  0
   11.8637    3.0593   -4.4939 C   0  0  0  0  0  0  0  0  0  0  0  0
   11.5408    2.5361   -5.6457 C   0  0  0  0  0  0  0  0  0  0  0  0
   11.6085    1.0446   -5.8908 C   0  0  2  0  0  0  0  0  0  0  0  0
   10.2677    0.3850   -5.7370 C   0  0  0  0  0  2  0  0  0  0  0  0
    6.9554    5.7350   -2.4797 C   0  0  0  0  0  0  0  0  0  0  0  0
    7.9312    4.7620   -3.0411 C   0  0  0  0  0  0  0  0  0  0  0  0
    8.2913    3.6182   -2.1566 C   0  0  0  0  0  0  0  0  0  0  0  0
    8.6124    2.3512   -2.8867 C   0  0  0  0  0  3  0  0  0  0  0  0
    9.6942    1.7262   -2.2855 O   0  0  0  0  0  0  0  0  0  0  0  0
    9.4605    0.0431   -1.9831 S   0  0  0  0  0  0  0  0  0  0  0  0
    8.5098   -0.4812   -0.7640 C   0  0  0  0  0  0  0  0  0  0  0  0
    8.4207   -1.9369   -0.6465 C   0  0  0  0  0  0  0  0  0  0  0  0
    9.0334   -2.7707   -1.4302 C   0  0  0  0  0  0  0  0  0  0  0  0
    9.8966   -2.4845   -2.5386 C   0  0  0  0  0  0  0  0  0  0  0  0
   10.2262   -1.2548   -2.9634 C   0  0  0  0  0  0  0  0  0  0  0  0
   11.0617   -1.1159   -4.0356 O   0  0  0  0  0  0  0  0  0  0  0  0
   12.2483   -0.4465   -4.1064 C   0  0  0  0  0  0  0  0  0  0  0  0
   12.5764    0.5305   -4.9050 C   0  0  0  0  0  0  0  0  0  0  0  0
   14.1932    1.2539   -4.8147 S   0  0  0  0  0  0  0  0  0  0  0  0
   15.4286    0.1977   -5.3134 O   0  0  0  0  0  0  0  0  0  0  0  0
   16.5421    0.9022   -5.3462 O   0  0  0  0  0  0  0  0  0  0  0  0
   17.6524    0.1084   -5.0109 C   0  0  0  0  0  0  0  0  0  0  0  0
   17.6551   -1.0767   -5.9833 C   0  0  0  0  0  3  0  0  0  0  0  0
   18.9563   -1.1299   -6.7691 C   0  0  0  0  0  0  0  0  0  0  0  0
   19.2840   -2.6082   -6.9257 C   0  0  0  0  0  0  0  0  0  0  0  0
   18.5904   -3.1423   -8.1404 C   0  0  0  0  0  2  0  0  0  0  0  0
   17.4107   -3.8003   -7.7842 O   0  0  0  0  0  0  0  0  0  0  0  0
   17.1282   -4.8226   -8.6926 C   0  0  0  0  0  0  0  0  0  0  0  0
   15.7337   -5.2836   -8.5827 C   0  0  0  0  0  0  0  0  0  0  0  0
   15.1538   -5.5243   -7.4588 C   0  0  0  0  0  0  0  0  0  0  0  0
   15.5641   -5.4505   -6.1405 N   0  0  0  0  0  0  0  0  0  0  0  0
   16.3380   -4.4184   -5.5550 C   0  0  1  0  0  0  0  0  0  0  0  0
   15.5438   -3.3906   -5.0366 O   0  0  0  0  0  0  0  0  0  0  0  0
   16.1531   -2.7435   -4.0937 O   0  0  0  0  0  0  0  0  0  0  0  0
   15.2936   -1.9994   -3.2889 C   0  0  0  0  0  3  0  0  0  0  0  0
   16.0031   -1.2687   -2.3180 O   0  0  0  0  0  0  0  0  0  0  0  0
   15.1251   -0.5972   -1.4652 C   0  0  0  0  0  0  0  0  0  0  0  0
   17.1699   -4.9446   -4.3657 C   0  0  2  0  0  0  0  0  0  0  0  0
   18.2145   -6.3103   -4.9418 S   0  0  0  0  0  0  0  0  0  0  0  0
   17.3851   -7.4357   -6.0567 C   0  0  0  0  0  3  0  0  0  0  0  0
   18.1485   -8.7073   -6.2295 C   0  0  0  0  0  3  0  0  0  0  0  0
   17.4087   -9.6658   -6.9392 O   0  0  0  0  0  0  0  0  0  0  0  0
   16.2748   -9.9620   -6.2206 O   0  0  0  0  0  0  0  0  0  0  0  0
   15.8139   -8.9721   -5.4302 N   0  0  0  0  0  0  0  0  0  0  0  0
   15.1061   -8.9575   -4.3914 C   0  0  0  0  0  0  0  0  0  0  0  0
   14.7826   -7.6573   -3.7632 N   0  0  0  0  0  0  0  0  0  0  0  0
   15.6152   -6.7866   -3.7426 C   0  0  0  0  0  0  0  0  0  0  0  0
   16.1412   -5.5804   -3.4748 N   0  0  0  0  0  0  0  0  0  0  0  0
   15.8164   -4.7505   -2.3374 C   0  0  0  0  0  0  0  0  0  0  0  0
   15.2266   -5.6110   -1.2477 C   0  0  0  0  0  3  0  0  0  0  0  0
   15.8138   -5.2758    0.1036 C   0  0  0  0  0  3  0  0  0  0  0  0
   16.5948   -3.6549    0.1332 S   0  0  0  0  0  0  0  0  0  0  0  0
   18.3699   -3.7569   -0.2339 C   0  0  0  0  0  3  0  0  0  0  0  0
   18.7546   -2.7454   -1.0793 O   0  0  0  0  0  0  0  0  0  0  0  0
   20.0478   -2.9106   -1.5808 C   0  0  0  0  0  3  0  0  0  0  0  0
   19.9182   -2.9019   -3.0808 C   0  0  0  0  0  0  0  0  0  0  0  0
   20.5250   -3.9018   -3.7499 C   0  0  0  0  0  0  0  0  0  0  0  0
   21.2826   -4.9605   -3.0674 C   0  0  0  0  0  3  0  0  0  0  0  0
   21.3717   -6.4581   -4.1990 Si  0  0  0  0  0  3  0  0  0  0  0  0
   21.2639   -6.3368   -5.7120 O   0  0  0  0  0  0  0  0  0  0  0  0
  1  2  1  0
  2  3  1  0
  3  4  2  0
  4  5  1  0
  5  6  2  0
  6  7  1  0
  7  8  2  0
  8  9  1  0
 10  9  1  1
 10 11  1  0
 11 12  1  0
 12 13  1  0
 13 14  1  0
 14 15  1  0
 15 16  1  0
 16 17  1  1
 16 18  1  0
 18 19  1  1
 18 20  1  0
 20 21  2  0
 21 22  2  0
 22 23  1  0
 23 24  2  0
 24 25  2  0
 25 26  2  0
 26 27  1  0
 18 28  1  0
 28 29  2  3
 29 30  1  0
 30 31  1  1
 10 32  1  0
 32 33  1  0
 33 34  1  0
 34 35  1  0
 35 36  1  0
 36 37  1  0
 37 38  2  0
 38 39  1  0
 39 40  2  0
 40 41  1  0
 41 42  2  0
 42 43  1  0
 43 44  1  0
 44 45  2  3
 45 46  1  0
 46 47  1  0
 47 48  1  0
 48 49  1  0
 49 50  1  0
 50 51  1  0
 51 52  1  0
 52 53  1  0
 53 54  1  0
 54 55  1  0
 55 56  1  0
 56 57  2  3
 57 58  1  0
 59 58  1  1
 59 60  1  0
 60 61  1  0
 61 62  1  0
 62 63  1  0
 63 64  1  0
 59 65  1  0
 65 66  1  6
 66 67  1  0
 67 68  1  0
 68 69  1  0
 69 70  1  0
 70 71  1  0
 71 72  2  0
 72 73  1  0
 73 74  2  0
 74 75  1  0
 75 76  1  0
 76 77  1  0
 77 78  1  0
 78 79  1  0
 79 80  1  0
 80 81  1  0
 81 82  1  0
 82 83  1  0
 83 84  2  3
 84 85  1  0
 85 86  1  0
 86 87  2  0
  8  3  1  0
 45 30  1  0
 42 37  1  0
 75 65  1  0
M  RAD  8  13   2  31   3  35   2  50   2  53   3  62   2  67   2  68   2
M  RAD  6  77   2  78   2  80   2  82   2  85   2  86   2
M  END
>  <docking_score>  (1) 
102.209

$$$$
