
     RDKit          3D

 12 12  0  0  0  0  0  0  0  0999 V2000
   14.5720   -0.8740   -3.3754 O   0  0  0  0  0  0  0  0  0  0  0  0
   15.3152   -1.6035   -4.0568 C   0  0  0  0  0  0  0  0  0  0  0  0
   15.9705   -2.7994   -3.5256 C   0  0  0  0  0  0  0  0  0  0  0  0
   16.5507   -2.7134   -2.3020 C   0  0  0  0  0  0  0  0  0  0  0  0
   17.1836   -3.7985   -1.7432 C   0  0  0  0  0  0  0  0  0  0  0  0
   17.2099   -4.9733   -2.4631 C   0  0  0  0  0  0  0  0  0  0  0  0
   16.6251   -5.0643   -3.6990 C   0  0  0  0  0  0  0  0  0  0  0  0
   16.0010   -3.9740   -4.2372 C   0  0  0  0  0  0  0  0  0  0  0  0
   15.3637   -4.0182   -5.5479 C   0  0  0  0  0  0  0  0  0  0  0  0
   16.0489   -3.6285   -6.5536 O   0  0  0  0  0  0  0  0  0  0  0  0
   14.0182   -4.4798   -5.7160 C   0  0  0  0  0  0  0  0  0  0  0  0
   12.9126   -4.8539   -5.8742 N   0  0  0  0  0  0  0  0  0  0  0  0
  1  2  2  0
  2  3  1  0
  3  4  2  0
  4  5  1  0
  5  6  2  0
  6  7  1  0
  7  8  2  0
  8  9  1  0
  9 10  2  0
  9 11  1  0
 11 12  3  0
  8  3  1  0
M  END
>  <docking_score>  (1) 
-4.0439999999999996

$$$$

     RDKit          3D

 12 12  0  0  0  0  0  0  0  0999 V2000
   18.0985   -3.5926   -1.9474 O   0  0  0  0  0  0  0  0  0  0  0  0
   16.9920   -4.0059   -2.3395 C   0  0  0  0  0  0  0  0  0  0  0  0
   16.1335   -3.2529   -3.2547 C   0  0  0  0  0  0  0  0  0  0  0  0
   15.7807   -1.9917   -2.8994 C   0  0  0  0  0  0  0  0  0  0  0  0
   14.9766   -1.2283   -3.7122 C   0  0  0  0  0  0  0  0  0  0  0  0
   14.5412   -1.7830   -4.8963 C   0  0  0  0  0  0  0  0  0  0  0  0
   14.8953   -3.0561   -5.2588 C   0  0  0  0  0  0  0  0  0  0  0  0
   15.6955   -3.7988   -4.4367 C   0  0  0  0  0  0  0  0  0  0  0  0
   16.1009   -5.1578   -4.7758 C   0  0  0  0  0  0  0  0  0  0  0  0
   17.2641   -5.3213   -5.2788 O   0  0  0  0  0  0  0  0  0  0  0  0
   15.2357   -6.2783   -4.5580 C   0  0  0  0  0  0  0  0  0  0  0  0
   14.5379   -7.2121   -4.3885 N   0  0  0  0  0  0  0  0  0  0  0  0
  1  2  2  0
  2  3  1  0
  3  4  2  0
  4  5  1  0
  5  6  2  0
  6  7  1  0
  7  8  2  0
  8  9  1  0
  9 10  2  0
  9 11  1  0
 11 12  3  0
  8  3  1  0
M  END
>  <docking_score>  (2) 
-3.988

$$$$

     RDKit          3D

 12 12  0  0  0  0  0  0  0  0999 V2000
   15.8135   -1.1722   -1.6390 O   0  0  0  0  0  0  0  0  0  0  0  0
   16.3600   -1.6223   -2.6625 C   0  0  0  0  0  0  0  0  0  0  0  0
   16.3017   -3.0329   -3.0479 C   0  0  0  0  0  0  0  0  0  0  0  0
   16.8721   -3.9411   -2.2166 C   0  0  0  0  0  0  0  0  0  0  0  0
   16.8536   -5.2825   -2.5173 C   0  0  0  0  0  0  0  0  0  0  0  0
   16.2389   -5.6747   -3.6867 C   0  0  0  0  0  0  0  0  0  0  0  0
   15.6616   -4.7607   -4.5289 C   0  0  0  0  0  0  0  0  0  0  0  0
   15.6908   -3.4317   -4.2119 C   0  0  0  0  0  0  0  0  0  0  0  0
   15.0915   -2.4194   -5.0733 C   0  0  0  0  0  0  0  0  0  0  0  0
   14.1325   -1.7246   -4.5932 O   0  0  0  0  0  0  0  0  0  0  0  0
   15.5518   -2.2013   -6.4121 C   0  0  0  0  0  0  0  0  0  0  0  0
   15.9148   -2.0085   -7.5160 N   0  0  0  0  0  0  0  0  0  0  0  0
  1  2  2  0
  2  3  1  0
  3  4  2  0
  4  5  1  0
  5  6  2  0
  6  7  1  0
  7  8  2  0
  8  9  1  0
  9 10  2  0
  9 11  1  0
 11 12  3  0
  8  3  1  0
M  END
>  <docking_score>  (3) 
-3.8290000000000002

$$$$
