
     RDKit          3D

 26 26  0  0  0  0  0  0  0  0999 V2000
   17.5019   -7.4444   -7.2547 C   0  0  0  0  0  0  0  0  0  0  0  0
   17.7533   -6.0198   -6.8665 C   0  0  1  0  0  0  0  0  0  0  0  0
   16.8757   -5.0561   -7.6247 C   0  0  0  0  0  0  0  0  0  0  0  0
   15.4191   -5.4328   -7.3960 C   0  0  2  0  0  0  0  0  0  0  0  0
   14.5963   -4.3128   -7.5470 O   0  0  0  0  0  0  0  0  0  0  0  0
   15.2154   -6.0607   -6.0356 C   0  0  2  0  0  0  0  0  0  0  0  0
   13.9232   -5.8538   -5.6103 O   0  0  0  0  0  0  0  0  0  0  0  0
   16.1703   -5.4452   -5.0247 C   0  0  1  0  0  0  0  0  0  0  0  0
   15.8668   -5.9988   -3.7834 O   0  0  0  0  0  0  0  0  0  0  0  0
   17.6059   -5.7569   -5.4004 C   0  0  1  0  0  0  0  0  0  0  0  0
   18.0626   -6.8033   -4.5417 N   0  0  0  0  0  0  0  0  0  0  0  0
   19.4969   -6.7270   -4.3819 C   0  0  0  0  0  3  0  0  0  0  0  0
   19.7948   -6.0433   -3.0799 C   0  0  0  0  0  0  0  0  0  0  0  0
   20.9325   -5.0636   -3.1517 C   0  0  1  0  0  0  0  0  0  0  0  0
   20.9107   -4.2539   -4.4326 C   0  0  0  0  0  2  0  0  0  0  0  0
   20.7943   -4.1615   -1.9376 C   0  0  0  0  0  0  0  0  0  0  0  0
   20.1612   -2.8492   -2.2750 C   0  0  0  0  0  0  0  0  0  0  0  0
   18.9581   -2.6784   -1.6353 O   0  0  0  0  0  0  0  0  0  0  0  0
   17.9096   -3.1973   -2.4034 C   0  0  1  0  0  0  0  0  0  0  0  0
   16.8571   -3.6151   -1.5792 O   0  0  0  0  0  0  0  0  0  0  0  0
   17.3580   -2.0456   -3.2246 C   0  0  1  0  0  0  0  0  0  0  0  0
   17.5446   -2.2194   -4.5783 O   0  0  0  0  0  0  0  0  0  0  0  0
   15.8735   -1.9766   -2.9586 C   0  0  0  0  0  3  0  0  0  0  0  0
   15.0686   -1.7236   -4.2055 C   0  0  0  0  0  0  0  0  0  0  0  0
   14.2247   -0.4841   -3.9297 C   0  0  0  0  0  3  0  0  0  0  0  0
   13.1101   -0.4631   -4.9439 C   0  0  0  0  0  0  0  0  0  0  0  0
  2  1  1  1
  2  3  1  0
  3  4  1  0
  4  5  1  1
  4  6  1  0
  6  7  1  1
  6  8  1  0
  8  9  1  1
  8 10  1  0
 10 11  1  1
 11 12  1  0
 12 13  1  0
 13 14  1  0
 14 15  1  6
 14 16  1  0
 16 17  1  0
 17 18  1  0
 18 19  1  0
 19 20  1  1
 19 21  1  0
 21 22  1  6
 21 23  1  0
 23 24  1  0
 24 25  1  0
 25 26  1  0
 10  2  1  0
M  RAD  4  12   2  15   3  23   2  25   2
M  END
>  <docking_score>  (1) 
-3.9809999999999999

$$$$

     RDKit          3D

 26 26  0  0  0  0  0  0  0  0999 V2000
   18.3880   -6.7031   -3.8359 C   0  0  0  0  0  0  0  0  0  0  0  0
   19.8639   -6.8008   -4.0709 C   0  0  1  0  0  0  0  0  0  0  0  0
   20.2363   -8.0203   -4.8759 C   0  0  0  0  0  0  0  0  0  0  0  0
   19.4767   -7.9903   -6.1943 C   0  0  2  0  0  0  0  0  0  0  0  0
   20.1746   -8.7008   -7.1752 O   0  0  0  0  0  0  0  0  0  0  0  0
   19.2148   -6.5731   -6.6516 C   0  0  2  0  0  0  0  0  0  0  0  0
   19.0906   -6.5358   -8.0215 O   0  0  0  0  0  0  0  0  0  0  0  0
   20.3634   -5.6667   -6.2371 C   0  0  1  0  0  0  0  0  0  0  0  0
   20.1029   -4.4054   -6.7672 O   0  0  0  0  0  0  0  0  0  0  0  0
   20.4540   -5.5910   -4.7255 C   0  0  1  0  0  0  0  0  0  0  0  0
   19.8952   -4.3408   -4.3185 N   0  0  0  0  0  0  0  0  0  0  0  0
   20.7659   -3.6922   -3.3646 C   0  0  0  0  0  3  0  0  0  0  0  0
   20.2940   -4.0325   -1.9816 C   0  0  0  0  0  0  0  0  0  0  0  0
   19.3058   -3.0516   -1.4156 C   0  0  1  0  0  0  0  0  0  0  0  0
   19.3634   -1.7105   -2.1192 C   0  0  0  0  0  2  0  0  0  0  0  0
   17.9360   -3.6885   -1.5737 C   0  0  0  0  0  0  0  0  0  0  0  0
   17.0447   -2.8997   -2.4795 C   0  0  0  0  0  0  0  0  0  0  0  0
   16.5716   -3.6566   -3.5231 O   0  0  0  0  0  0  0  0  0  0  0  0
   15.5137   -3.0061   -4.1682 C   0  0  1  0  0  0  0  0  0  0  0  0
   15.4202   -1.6762   -3.7391 O   0  0  0  0  0  0  0  0  0  0  0  0
   15.8749   -2.9396   -5.6414 C   0  0  1  0  0  0  0  0  0  0  0  0
   16.9438   -3.7460   -5.9645 O   0  0  0  0  0  0  0  0  0  0  0  0
   14.6723   -3.4169   -6.4193 C   0  0  0  0  0  3  0  0  0  0  0  0
   13.8760   -4.4593   -5.6805 C   0  0  0  0  0  0  0  0  0  0  0  0
   13.8780   -5.7057   -6.5586 C   0  0  0  0  0  3  0  0  0  0  0  0
   14.1120   -5.2564   -7.9781 C   0  0  0  0  0  0  0  0  0  0  0  0
  2  1  1  6
  2  3  1  0
  3  4  1  0
  4  5  1  6
  4  6  1  0
  6  7  1  6
  6  8  1  0
  8  9  1  6
  8 10  1  0
 10 11  1  1
 11 12  1  0
 12 13  1  0
 13 14  1  0
 14 15  1  6
 14 16  1  0
 16 17  1  0
 17 18  1  0
 18 19  1  0
 19 20  1  1
 19 21  1  0
 21 22  1  1
 21 23  1  0
 23 24  1  0
 24 25  1  0
 25 26  1  0
 10  2  1  0
M  RAD  4  12   2  15   3  23   2  25   2
M  END
>  <docking_score>  (2) 
-3.661

$$$$

     RDKit          3D

 26 26  0  0  0  0  0  0  0  0999 V2000
    7.8251   10.8188    4.7262 C   0  0  0  0  0  0  0  0  0  0  0  0
    6.4602   11.3941    4.9483 C   0  0  1  0  0  0  0  0  0  0  0  0
    6.4233   12.8847    4.7235 C   0  0  0  0  0  0  0  0  0  0  0  0
    6.9158   13.1822    3.3146 C   0  0  2  0  0  0  0  0  0  0  0  0
    6.3727   14.3843    2.8520 O   0  0  0  0  0  0  0  0  0  0  0  0
    6.5908   12.0527    2.3633 C   0  0  2  0  0  0  0  0  0  0  0  0
    6.4859   12.5347    1.0787 O   0  0  0  0  0  0  0  0  0  0  0  0
    5.2734   11.4004    2.7529 C   0  0  1  0  0  0  0  0  0  0  0  0
    4.9909   10.4372    1.7876 O   0  0  0  0  0  0  0  0  0  0  0  0
    5.3911   10.7538    4.1193 C   0  0  1  0  0  0  0  0  0  0  0  0
    5.5294    9.3454    3.9234 N   0  0  0  0  0  0  0  0  0  0  0  0
    4.3906    8.6504    4.4789 C   0  0  0  0  0  3  0  0  0  0  0  0
    4.6249    8.4508    5.9474 C   0  0  0  0  0  0  0  0  0  0  0  0
    3.4935    7.7617    6.6576 C   0  0  1  0  0  0  0  0  0  0  0  0
    3.3243    6.3251    6.2053 C   0  0  0  0  0  2  0  0  0  0  0  0
    3.8178    7.8288    8.1399 C   0  0  0  0  0  0  0  0  0  0  0  0
    3.9655    9.2358    8.6251 C   0  0  0  0  0  0  0  0  0  0  0  0
    4.4864    9.2906    9.8946 O   0  0  0  0  0  0  0  0  0  0  0  0
    3.4734    9.4960   10.8382 C   0  0  1  0  0  0  0  0  0  0  0  0
    3.1157    8.2859   11.4459 O   0  0  0  0  0  0  0  0  0  0  0  0
    4.0708   10.3508   11.9416 C   0  0  1  0  0  0  0  0  0  0  0  0
    4.1218    9.6973   13.1530 O   0  0  0  0  0  0  0  0  0  0  0  0
    5.4830   10.6907   11.5297 C   0  0  0  0  0  3  0  0  0  0  0  0
    5.7069   12.1722   11.3821 C   0  0  0  0  0  0  0  0  0  0  0  0
    7.1178   12.4475   11.8902 C   0  0  0  0  0  3  0  0  0  0  0  0
    7.0815   13.7588   12.6324 C   0  0  0  0  0  0  0  0  0  0  0  0
  2  1  1  6
  2  3  1  0
  3  4  1  0
  4  5  1  6
  4  6  1  0
  6  7  1  6
  6  8  1  0
  8  9  1  6
  8 10  1  0
 10 11  1  6
 11 12  1  0
 12 13  1  0
 13 14  1  0
 14 15  1  6
 14 16  1  0
 16 17  1  0
 17 18  1  0
 18 19  1  0
 19 20  1  1
 19 21  1  0
 21 22  1  1
 21 23  1  0
 23 24  1  0
 24 25  1  0
 25 26  1  0
 10  2  1  0
M  RAD  4  12   2  15   3  23   2  25   2
M  END
>  <docking_score>  (3) 
-3.1120000000000001

$$$$
