
     RDKit          3D

 60 59  0  0  0  0  0  0  0  0999 V2000
    4.7015   -2.3286    8.1805 C   0  0  0  0  0  0  0  0  0  0  0  0
    4.8325   -1.0240    8.9091 C   0  0  0  0  0  0  0  0  0  0  0  0
    4.0470   -0.7838   10.1642 C   0  0  0  0  0  0  0  0  0  0  0  0
    5.7489    0.0404    8.3826 C   0  0  0  0  0  0  0  0  0  0  0  0
    7.0999    0.2410    9.0029 C   0  0  0  0  0  0  0  0  0  0  0  0
    8.1838   -0.7724    8.7835 C   0  0  0  0  0  3  0  0  0  0  0  0
    8.7789   -1.4992    9.9529 C   0  0  0  0  0  0  0  0  0  0  0  0
    9.2492   -0.7316   11.1527 C   0  0  0  0  0  0  0  0  0  0  0  0
    8.9036   -2.9938    9.9226 C   0  0  0  0  0  0  0  0  0  0  0  0
   10.0299   -3.6673   10.6490 C   0  0  0  0  0  2  0  0  0  0  0  0
    7.9019   -3.8147    9.1659 C   0  0  0  0  0  3  0  0  0  0  0  0
    8.2214   -4.3003    7.7831 C   0  0  0  0  0  3  0  0  0  0  0  0
    7.8946   -3.4462    6.5941 C   0  0  0  0  0  0  0  0  0  0  0  0
    8.6040   -3.6707    5.2917 C   0  0  0  0  0  3  0  0  0  0  0  0
    8.9287   -5.0654    4.8452 C   0  0  0  0  0  3  0  0  0  0  0  0
    7.8989   -6.1497    4.9635 C   0  0  0  0  0  0  0  0  0  0  0  0
    8.2778   -7.4852    5.5316 C   0  0  0  0  0  0  0  0  0  0  0  0
    7.2481   -8.5694    5.6499 C   0  0  0  0  0  0  0  0  0  0  0  0
    7.4593   -9.7030    6.6093 C   0  0  0  0  0  0  0  0  0  0  0  0
    6.0071   -8.5201    4.8088 C   0  0  0  0  0  0  0  0  0  0  0  0
    4.9092   -9.5175    5.0326 O   0  0  0  0  0  0  0  0  0  0  0  0
    3.4986   -9.1781    4.6519 C   0  0  0  0  0  0  0  0  0  0  0  0
    3.2267   -8.0237    3.7334 C   0  0  0  0  0  0  0  0  0  0  0  0
    3.8674   -7.9766    2.3780 C   0  0  0  0  0  0  0  0  0  0  0  0
    4.6904   -9.1346    1.8969 C   0  0  0  0  0  0  0  0  0  0  0  0
    3.6850   -6.7715    1.5037 C   0  0  0  0  0  3  0  0  0  0  0  0
    4.5733   -6.5679    0.3123 C   0  0  0  0  0  0  0  0  0  0  0  0
    4.4774   -5.3023   -0.4872 C   0  0  0  0  0  0  0  0  0  0  0  0
    5.2788   -4.0993   -0.0862 C   0  0  0  0  0  0  0  0  0  0  0  0
    6.6290   -3.8609   -0.6946 C   0  0  0  0  0  0  0  0  0  0  0  0
    6.7383   -3.3219   -2.0901 S   0  0  0  0  0  0  0  0  0  0  0  0
    6.6692   -1.8429   -2.3304 C   0  0  0  0  0  3  0  0  0  0  0  0
    6.5004   -1.3168   -3.7249 C   0  0  0  0  0  0  0  0  0  0  0  0
    6.2871   -2.2681   -4.8648 C   0  0  0  0  0  0  0  0  0  0  0  0
    6.1183   -1.7419   -6.2594 C   0  0  0  0  0  0  0  0  0  0  0  0
    5.0739   -0.7048   -6.5483 C   0  0  0  0  0  3  0  0  0  0  0  0
    5.1706    0.6529   -5.9180 C   0  0  0  0  0  0  0  0  0  0  0  0
    5.4559    1.8557   -6.7677 C   0  0  0  0  0  3  0  0  0  0  0  0
    6.7969    2.0109   -7.4218 C   0  0  0  0  0  3  0  0  0  0  0  0
    7.6413    0.8021   -7.6974 C   0  0  0  0  0  3  0  0  0  0  0  0
    7.9227   -0.1821   -6.6010 C   0  0  0  0  0  0  0  0  0  0  0  0
    8.7991    0.2095   -5.4484 C   0  0  0  0  0  0  0  0  0  0  0  0
    9.5249   -0.8447   -4.6661 C   0  0  0  0  0  0  0  0  0  0  0  0
   10.4014   -0.4532   -3.5135 C   0  0  0  0  0  3  0  0  0  0  0  0
   11.8900   -0.6054   -3.6178 C   0  0  0  0  0  0  0  0  0  0  0  0
   12.6455    0.1254   -4.6879 C   0  0  0  0  0  3  0  0  0  0  0  0
   13.9054   -0.4623   -5.2511 C   0  0  0  0  0  0  0  0  0  0  0  0
   14.5480   -1.6407   -4.5813 C   0  0  0  0  0  0  0  0  0  0  0  0
   15.5281   -2.4896   -5.3356 C   0  0  0  0  0  0  0  0  0  0  0  0
   16.0252   -2.0467   -6.6798 C   0  0  0  0  0  2  0  0  0  0  0  0
   16.0111   -3.7814   -4.7457 C   0  0  0  0  0  0  0  0  0  0  0  0
   15.9254   -5.0486   -5.5437 C   0  0  0  0  0  0  0  0  0  0  0  0
   15.8682   -6.3737   -4.8430 C   0  0  0  0  0  0  0  0  0  0  0  0
   16.9384   -7.3966   -5.0845 C   0  0  0  0  0  3  0  0  0  0  0  0
   17.2343   -7.8570   -6.4811 C   0  0  0  0  0  3  0  0  0  0  0  0
   18.6268   -7.7467   -7.0280 C   0  0  0  0  0  3  0  0  0  0  0  0
   19.7999   -8.1302   -6.1754 C   0  0  0  0  0  2  0  0  0  0  0  0
   20.7556   -7.0775   -5.6973 C   0  0  0  0  0  0  0  0  0  0  0  0
   20.2949   -6.0319   -4.7255 C   0  0  0  0  0  0  0  0  0  0  0  0
   20.8818   -5.9795   -3.3462 Cl  0  0  0  0  0  0  0  0  0  0  0  0
  1  2  1  0
  2  3  1  0
  2  4  1  0
  4  5  1  0
  5  6  1  0
  6  7  1  0
  7  8  1  0
  7  9  1  0
  9 10  1  0
  9 11  1  0
 11 12  1  0
 12 13  1  0
 13 14  1  0
 14 15  1  0
 15 16  1  0
 16 17  2  3
 17 18  1  0
 18 19  1  0
 18 20  1  0
 20 21  1  0
 21 22  1  0
 22 23  1  0
 23 24  1  0
 24 25  1  0
 24 26  1  0
 26 27  1  0
 27 28  1  0
 28 29  1  0
 29 30  1  0
 30 31  1  0
 31 32  1  0
 32 33  1  0
 33 34  2  3
 34 35  1  0
 35 36  1  0
 36 37  1  0
 37 38  1  0
 38 39  1  0
 39 40  1  0
 40 41  1  0
 41 42  1  0
 42 43  2  3
 43 44  1  0
 44 45  1  0
 45 46  1  0
 46 47  1  0
 47 48  1  0
 48 49  1  0
 49 50  1  0
 49 51  1  0
 51 52  1  0
 52 53  1  0
 53 54  1  0
 54 55  1  0
 55 56  1  0
 56 57  1  0
 57 58  1  0
 58 59  1  0
 59 60  1  0
M  RAD  8   6   2  10   3  11   2  12   2  14   2  15   2  26   2  32   2
M  RAD  8  36   2  38   2  39   2  40   2  44   2  46   2  50   3  54   2
M  RAD  3  55   2  56   2  57   3
M  END
>  <docking_score>  (1) 
66.459000000000003

$$$$
