
     RDKit          3D

 52 56  0  0  0  0  0  0  0  0999 V2000
   17.0876   -5.0880   -4.2508 C   0  0  0  0  0  0  0  0  0  0  0  0
   18.2514   -4.5175   -4.0149 C   0  0  0  0  0  0  0  0  0  0  0  0
   19.3501   -5.4929   -3.8657 C   0  0  0  0  0  0  0  0  0  0  0  0
   19.6579   -5.6668   -2.4114 C   0  0  0  0  0  0  0  0  0  0  0  0
   20.6080   -4.5863   -1.9452 C   0  0  0  0  0  3  0  0  0  0  0  0
   19.9493   -3.6334   -0.9772 C   0  0  0  0  0  0  0  0  0  0  0  0
   19.3630   -4.4672    0.1590 C   0  0  0  0  0  0  0  0  0  0  0  0
   21.0149   -2.7374   -0.3941 C   0  0  0  0  0  0  0  0  0  0  0  0
   18.8646   -2.8062   -1.5893 C   0  0  1  0  0  0  0  0  0  0  0  0
   18.9836   -1.3499   -1.2424 C   0  0  0  0  0  0  0  0  0  0  0  0
   18.8695   -0.9986   -2.7121 C   0  0  0  0  0  0  0  0  0  0  0  0
   19.1765   -2.4527   -3.0369 C   0  0  1  0  0  0  0  0  0  0  0  0
   20.6186   -2.6969   -3.3880 C   0  0  0  0  0  0  0  0  0  0  0  0
   18.1561   -3.0434   -3.9613 C   0  0  1  0  0  0  0  0  0  0  0  0
   18.3306   -2.4598   -5.3308 C   0  0  0  0  0  0  0  0  0  0  0  0
   19.2951   -1.3578   -5.2770 C   0  0  0  0  0  0  0  0  0  0  0  0
   20.0630   -0.9853   -6.2759 C   0  0  0  0  0  0  0  0  0  0  0  0
   20.9926    0.1144   -6.1512 C   0  0  0  0  0  0  0  0  0  0  0  0
   21.3638    0.5019   -5.0185 O   0  0  0  0  0  0  0  0  0  0  0  0
   19.9757   -1.7344   -7.5783 C   0  0  0  0  0  0  0  0  0  0  0  0
   19.7670   -3.1490   -7.2286 C   0  0  0  0  0  0  0  0  0  0  0  0
   20.7151   -3.8450   -6.9329 O   0  0  0  0  0  0  0  0  0  0  0  0
   18.4125   -3.7328   -7.2333 C   0  0  0  0  0  3  0  0  0  0  0  0
   18.5261   -5.0935   -7.9443 C   0  0  0  0  0  0  0  0  0  0  0  0
   17.2682   -5.2813   -8.6931 C   0  0  0  0  0  0  0  0  0  0  0  0
   16.1438   -5.4629   -8.0731 C   0  0  0  0  0  0  0  0  0  0  0  0
   16.0157   -5.4976   -6.6704 N   0  0  0  0  0  0  0  0  0  0  0  0
   15.4522   -4.4077   -5.9552 C   0  0  0  0  0  0  0  0  0  0  0  0
   14.2907   -3.7124   -6.5073 C   0  0  0  0  0  0  0  0  0  0  0  0
   14.1414   -2.2673   -6.3684 C   0  0  2  0  0  0  0  0  0  0  0  0
   15.2036   -1.3267   -6.5250 C   0  0  0  0  0  0  0  0  0  0  0  0
   14.7406   -0.5227   -5.6354 C   0  0  0  0  0  0  0  0  0  0  0  0
   13.5734   -1.5233   -5.4045 C   0  0  1  0  0  0  0  0  0  0  0  0
   12.7029   -0.4108   -5.1835 C   0  0  0  0  0  3  0  0  0  0  0  0
   13.9984    0.2718   -4.5543 C   0  0  0  0  0  0  0  0  0  0  0  0
   16.4580   -6.6899   -5.9932 C   0  0  0  0  0  0  0  0  0  0  0  0
   17.4247   -7.3725   -6.9821 C   0  0  0  0  0  0  0  0  0  0  0  0
   17.3795   -8.8705   -6.7413 C   0  0  1  0  0  0  0  0  0  0  0  0
   17.3731   -9.6220   -8.0657 C   0  0  0  0  0  0  0  0  0  0  0  0
   18.6622   -9.2256   -5.9753 C   0  0  1  0  0  0  0  0  0  0  0  0
   18.2426  -10.1553   -4.8279 C   0  0  0  0  0  2  0  0  0  0  0  0
   19.4380  -10.0902   -6.9136 C   0  0  0  0  0  0  0  0  0  0  0  0
   18.9446  -11.1303   -7.5456 C   0  0  0  0  0  0  0  0  0  0  0  0
   19.5078  -12.1147   -8.5025 C   0  0  0  0  0  0  0  0  0  0  0  0
   18.2375  -12.9396   -8.4715 C   0  0  0  0  0  0  0  0  0  0  0  0
   17.6578  -11.8201   -7.6286 C   0  0  0  0  0  3  0  0  0  0  0  0
   17.0598  -12.3276   -6.3409 C   0  0  2  0  0  0  0  0  0  0  0  0
   16.6464  -11.1975   -5.4586 C   0  0  0  0  0  0  0  0  0  0  0  0
   17.8695  -13.2672   -5.7071 O   0  0  0  0  0  0  0  0  0  0  0  0
   18.1107  -14.2960   -6.6129 C   0  0  0  0  0  3  0  0  0  0  0  0
   17.0413  -14.3978   -7.6773 C   0  0  0  0  0  0  0  0  0  0  0  0
   17.4610  -15.3883   -8.7245 C   0  0  0  0  0  2  0  0  0  0  0  0
  1  2  2  0
  2  3  1  0
  3  4  1  0
  4  5  1  0
  5  6  1  0
  6  7  1  0
  6  8  1  0
  6  9  1  0
  9 10  1  1
 10 11  1  0
 11 12  1  0
 12 13  1  6
 12 14  1  0
 14 15  1  6
 15 16  1  0
 16 17  2  0
 17 18  1  0
 18 19  2  0
 17 20  1  0
 20 21  1  0
 21 22  2  0
 21 23  1  0
 23 24  1  0
 24 25  1  0
 25 26  2  3
 26 27  1  0
 27 28  1  0
 28 29  1  0
 30 29  1  1
 30 31  1  0
 31 32  2  0
 32 33  1  0
 33 34  1  6
 34 35  1  0
 27 36  1  0
 36 37  1  0
 37 38  1  0
 38 39  1  6
 38 40  1  0
 40 41  1  1
 40 42  1  0
 42 43  2  3
 43 44  1  0
 44 45  1  0
 45 46  1  0
 46 47  1  0
 47 48  1  1
 47 49  1  0
 49 50  1  0
 50 51  1  0
 51 52  1  0
 14  2  1  0
 12  9  1  0
 33 30  1  0
 35 32  1  0
 46 43  1  0
M  RAD  7   5   2  23   2  34   2  41   3  46   2  50   2  52   3
M  END
>  <docking_score>  (1) 
5.3719999999999999

$$$$

     RDKit          3D

 52 56  0  0  0  0  0  0  0  0999 V2000
    9.1347   11.8295    2.4275 C   0  0  0  0  0  0  0  0  0  0  0  0
    7.9869   11.4984    2.9828 C   0  0  0  0  0  0  0  0  0  0  0  0
    7.5309   10.1474    2.5986 C   0  0  0  0  0  0  0  0  0  0  0  0
    6.4662   10.2674    1.5537 C   0  0  0  0  0  0  0  0  0  0  0  0
    5.1191   10.4932    2.2032 C   0  0  0  0  0  3  0  0  0  0  0  0
    4.5783   11.8734    1.9182 C   0  0  0  0  0  0  0  0  0  0  0  0
    4.5676   12.0574    0.4029 C   0  0  0  0  0  0  0  0  0  0  0  0
    3.1504   11.9332    2.4037 C   0  0  0  0  0  0  0  0  0  0  0  0
    5.3763   12.9741    2.5405 C   0  0  1  0  0  0  0  0  0  0  0  0
    4.5172   13.9770    3.2556 C   0  0  0  0  0  0  0  0  0  0  0  0
    5.3940   13.8405    4.4841 C   0  0  0  0  0  0  0  0  0  0  0  0
    5.9532   12.5581    3.8866 C   0  0  1  0  0  0  0  0  0  0  0  0
    5.3053   11.3128    4.4270 C   0  0  0  0  0  0  0  0  0  0  0  0
    7.4509   12.5683    3.8506 C   0  0  1  0  0  0  0  0  0  0  0  0
    7.9817   12.4234    5.2448 C   0  0  0  0  0  0  0  0  0  0  0  0
    8.7193   13.6331    5.6188 C   0  0  0  0  0  0  0  0  0  0  0  0
    8.2547   14.5824    6.3994 C   0  0  0  0  0  0  0  0  0  0  0  0
    9.0410   15.7499    6.7274 C   0  0  0  0  0  0  0  0  0  0  0  0
    9.8685   15.7100    7.6679 O   0  0  0  0  0  0  0  0  0  0  0  0
    6.8621   14.4501    6.9545 C   0  0  0  0  0  0  0  0  0  0  0  0
    6.9890   14.5479    8.4178 C   0  0  0  0  0  0  0  0  0  0  0  0
    6.1352   14.0670    9.1322 O   0  0  0  0  0  0  0  0  0  0  0  0
    8.1475   15.2266    9.0283 C   0  0  0  0  0  3  0  0  0  0  0  0
    8.2041   14.7599   10.4943 C   0  0  0  0  0  0  0  0  0  0  0  0
    8.4394   15.9675   11.3095 C   0  0  0  0  0  0  0  0  0  0  0  0
    8.9553   15.8810   12.4960 C   0  0  0  0  0  0  0  0  0  0  0  0
    9.3302   14.6666   13.1041 N   0  0  0  0  0  0  0  0  0  0  0  0
   10.6658   14.1889   13.0330 C   0  0  0  0  0  0  0  0  0  0  0  0
   11.2221   13.4462   14.1625 C   0  0  0  0  0  0  0  0  0  0  0  0
   11.8292   12.1322   13.9748 C   0  0  2  0  0  0  0  0  0  0  0  0
   12.0807   11.2009   15.0268 C   0  0  0  0  0  0  0  0  0  0  0  0
   13.1516   10.7422   14.4837 C   0  0  0  0  0  0  0  0  0  0  0  0
   12.9415   11.7546   13.3226 C   0  0  1  0  0  0  0  0  0  0  0  0
   13.4583   10.7768   12.4164 C   0  0  0  0  0  3  0  0  0  0  0  0
   14.3777   10.3555   13.6482 C   0  0  0  0  0  0  0  0  0  0  0  0
    8.3116   13.9404   13.8188 C   0  0  0  0  0  0  0  0  0  0  0  0
    7.0589   14.0291   12.9236 C   0  0  0  0  0  0  0  0  0  0  0  0
    5.8656   14.3652   13.7993 C   0  0  1  0  0  0  0  0  0  0  0  0
    4.5794   13.8539   13.1645 C   0  0  0  0  0  0  0  0  0  0  0  0
    6.0860   13.6345   15.1319 C   0  0  1  0  0  0  0  0  0  0  0  0
    6.0191   14.7028   16.2322 C   0  0  0  0  0  2  0  0  0  0  0  0
    4.8581   12.8056   15.3182 C   0  0  0  0  0  0  0  0  0  0  0  0
    4.6777   11.6159   14.7919 C   0  0  0  0  0  0  0  0  0  0  0  0
    3.5705   10.6289   14.8356 C   0  0  0  0  0  0  0  0  0  0  0  0
    4.2597    9.7431   13.8179 C   0  0  0  0  0  0  0  0  0  0  0  0
    5.4308   10.6992   13.9369 C   0  0  0  0  0  3  0  0  0  0  0  0
    5.8820   11.2170   12.5947 C   0  0  2  0  0  0  0  0  0  0  0  0
    4.9888   12.3110   12.1132 C   0  0  0  0  0  0  0  0  0  0  0  0
    6.0740   10.1987   11.6638 O   0  0  0  0  0  0  0  0  0  0  0  0
    5.1679   10.3989   10.6265 C   0  0  0  0  0  3  0  0  0  0  0  0
    4.4266   11.7116   10.7455 C   0  0  0  0  0  0  0  0  0  0  0  0
    2.9681   11.4502   10.9868 C   0  0  0  0  0  2  0  0  0  0  0  0
  1  2  2  0
  2  3  1  0
  3  4  1  0
  4  5  1  0
  5  6  1  0
  6  7  1  0
  6  8  1  0
  6  9  1  0
  9 10  1  1
 10 11  1  0
 11 12  1  0
 12 13  1  1
 12 14  1  0
 14 15  1  1
 15 16  1  0
 16 17  2  0
 17 18  1  0
 18 19  2  0
 17 20  1  0
 20 21  1  0
 21 22  2  0
 21 23  1  0
 23 24  1  0
 24 25  1  0
 25 26  2  3
 26 27  1  0
 27 28  1  0
 28 29  1  0
 30 29  1  1
 30 31  1  0
 31 32  2  0
 32 33  1  0
 33 34  1  6
 34 35  1  0
 27 36  1  0
 36 37  1  0
 37 38  1  0
 38 39  1  6
 38 40  1  0
 40 41  1  1
 40 42  1  0
 42 43  2  3
 43 44  1  0
 44 45  1  0
 45 46  1  0
 46 47  1  0
 47 48  1  6
 47 49  1  0
 49 50  1  0
 50 51  1  0
 51 52  1  0
 14  2  1  0
 12  9  1  0
 33 30  1  0
 35 32  1  0
 46 43  1  0
M  RAD  7   5   2  23   2  34   2  41   3  46   2  50   2  52   3
M  END
>  <docking_score>  (2) 
5.5720000000000001

$$$$
