
     RDKit          3D

 18 20  0  0  0  0  0  0  0  0999 V2000
   14.6214   -4.9863   -5.4717 C   0  0  0  0  0  0  0  0  0  0  0  0
   15.1716   -6.1094   -6.3256 C   0  0  2  0  0  0  0  0  0  0  0  0
   16.6858   -6.1350   -6.0885 C   0  0  0  0  0  0  0  0  0  0  0  0
   17.1800   -5.3926   -7.3228 C   0  0  1  0  0  0  0  0  0  0  0  0
   16.3419   -5.8768   -8.3234 O   0  0  0  0  0  0  0  0  0  0  0  0
   15.0631   -5.6489   -7.7802 C   0  0  0  0  0  3  0  0  0  0  0  0
   17.0624   -3.8978   -7.1540 C   0  0  0  0  0  0  0  0  0  0  0  0
   15.7337   -3.4888   -7.0069 O   0  0  0  0  0  0  0  0  0  0  0  0
   15.2944   -3.6719   -5.7291 C   0  0  1  0  0  0  0  0  0  0  0  0
   14.5168   -2.5731   -5.1315 C   0  0  2  0  0  0  0  0  0  0  0  0
   14.3741   -1.3397   -6.0330 C   0  0  0  0  0  3  0  0  0  0  0  0
   14.8803   -0.4470   -4.9024 C   0  0  1  0  0  0  0  0  0  0  0  0
   13.7428    0.4030   -4.3347 C   0  0  0  0  0  0  0  0  0  0  0  0
   15.1190   -1.7103   -4.1016 C   0  0  2  0  0  0  0  0  0  0  0  0
   16.5503   -1.9545   -3.7188 C   0  0  0  0  0  0  0  0  0  0  0  0
   16.5470   -2.2778   -2.2245 C   0  0  0  0  0  0  0  0  0  0  0  0
   16.6699   -3.7397   -1.9551 C   0  0  0  0  0  3  0  0  0  0  0  0
   17.3393   -4.4356   -2.9467 O   0  0  0  0  0  0  0  0  0  0  0  0
  2  1  1  1
  2  3  1  0
  3  4  1  0
  4  5  1  0
  5  6  1  0
  4  7  1  1
  7  8  1  0
  8  9  1  0
  9 10  1  0
 10 11  1  6
 11 12  1  0
 12 13  1  1
 12 14  1  0
 14 15  1  6
 15 16  1  0
 16 17  1  0
 17 18  1  0
  9  1  1  6
  6  2  1  0
 14 10  1  0
M  RAD  3   6   2  11   2  17   2
M  END
>  <docking_score>  (1) 
-4.3550000000000004

$$$$

     RDKit          3D

 18 20  0  0  0  0  0  0  0  0999 V2000
   17.6880   -3.1605   -4.9900 C   0  0  0  0  0  0  0  0  0  0  0  0
   18.3503   -2.5799   -3.7581 C   0  0  2  0  0  0  0  0  0  0  0  0
   18.7902   -3.7702   -2.8982 C   0  0  0  0  0  0  0  0  0  0  0  0
   17.6645   -3.8129   -1.8736 C   0  0  1  0  0  0  0  0  0  0  0  0
   17.4311   -2.4634   -1.6236 O   0  0  0  0  0  0  0  0  0  0  0  0
   17.2389   -1.9468   -2.9191 C   0  0  0  0  0  3  0  0  0  0  0  0
   16.4438   -4.5110   -2.4206 C   0  0  0  0  0  0  0  0  0  0  0  0
   15.8973   -3.8335   -3.5145 O   0  0  0  0  0  0  0  0  0  0  0  0
   16.5767   -4.1119   -4.6635 C   0  0  1  0  0  0  0  0  0  0  0  0
   15.7669   -4.3841   -5.8632 C   0  0  2  0  0  0  0  0  0  0  0  0
   14.2571   -4.2028   -5.6583 C   0  0  0  0  0  3  0  0  0  0  0  0
   14.0063   -5.5982   -6.2251 C   0  0  1  0  0  0  0  0  0  0  0  0
   13.3657   -5.5112   -7.6111 C   0  0  0  0  0  0  0  0  0  0  0  0
   15.5098   -5.7701   -6.2882 C   0  0  2  0  0  0  0  0  0  0  0  0
   16.0540   -6.8848   -5.4421 C   0  0  0  0  0  0  0  0  0  0  0  0
   17.1582   -7.5497   -6.2644 C   0  0  0  0  0  0  0  0  0  0  0  0
   17.7151   -8.7632   -5.5994 C   0  0  0  0  0  3  0  0  0  0  0  0
   16.7765   -9.7543   -5.3702 O   0  0  0  0  0  0  0  0  0  0  0  0
  2  1  1  6
  2  3  1  0
  3  4  1  0
  4  5  1  0
  5  6  1  0
  4  7  1  6
  7  8  1  0
  8  9  1  0
  9 10  1  0
 10 11  1  1
 11 12  1  0
 12 13  1  6
 12 14  1  0
 14 15  1  1
 15 16  1  0
 16 17  1  0
 17 18  1  0
  9  1  1  6
  6  2  1  0
 14 10  1  0
M  RAD  3   6   2  11   2  17   2
M  END
>  <docking_score>  (2) 
-4.194

$$$$

     RDKit          3D

 18 20  0  0  0  0  0  0  0  0999 V2000
   17.7675   -2.2205   -5.2301 C   0  0  0  0  0  0  0  0  0  0  0  0
   16.7713   -1.2114   -5.7620 C   0  0  2  0  0  0  0  0  0  0  0  0
   15.6806   -1.0717   -4.6942 C   0  0  0  0  0  0  0  0  0  0  0  0
   14.5941   -1.9645   -5.2782 C   0  0  1  0  0  0  0  0  0  0  0  0
   14.6677   -1.6806   -6.6391 O   0  0  0  0  0  0  0  0  0  0  0  0
   16.0321   -1.8905   -6.9162 C   0  0  0  0  0  3  0  0  0  0  0  0
   14.8567   -3.4210   -4.9844 C   0  0  0  0  0  0  0  0  0  0  0  0
   16.0389   -3.8719   -5.5791 O   0  0  0  0  0  0  0  0  0  0  0  0
   17.1321   -3.5218   -4.8431 C   0  0  1  0  0  0  0  0  0  0  0  0
   18.1619   -4.5572   -4.6519 C   0  0  2  0  0  0  0  0  0  0  0  0
   17.6244   -5.9939   -4.6865 C   0  0  0  0  0  3  0  0  0  0  0  0
   18.3073   -6.2882   -3.3530 C   0  0  1  0  0  0  0  0  0  0  0  0
   19.5050   -7.2179   -3.5529 C   0  0  0  0  0  0  0  0  0  0  0  0
   18.7048   -4.8273   -3.3103 C   0  0  2  0  0  0  0  0  0  0  0  0
   18.1471   -4.0547   -2.1498 C   0  0  0  0  0  0  0  0  0  0  0  0
   19.3402   -3.3927   -1.4601 C   0  0  0  0  0  0  0  0  0  0  0  0
   19.4388   -1.9351   -1.7611 C   0  0  0  0  0  3  0  0  0  0  0  0
   18.2127   -1.3175   -1.9371 O   0  0  0  0  0  0  0  0  0  0  0  0
  2  1  1  1
  2  3  1  0
  3  4  1  0
  4  5  1  0
  5  6  1  0
  4  7  1  6
  7  8  1  0
  8  9  1  0
  9 10  1  0
 10 11  1  1
 11 12  1  0
 12 13  1  6
 12 14  1  0
 14 15  1  1
 15 16  1  0
 16 17  1  0
 17 18  1  0
  9  1  1  6
  6  2  1  0
 14 10  1  0
M  RAD  3   6   2  11   2  17   2
M  END
>  <docking_score>  (3) 
-4.1900000000000004

$$$$
