
     RDKit          3D

 43 43  0  0  0  0  0  0  0  0999 V2000
    9.1028   12.6434   13.1840 O   0  0  0  0  0  0  0  0  0  0  0  0
    8.7168   13.4293   14.1777 O   0  0  0  0  0  0  0  0  0  0  0  0
    8.1443   12.6633   15.1998 C   0  0  0  0  0  3  0  0  0  0  0  0
    6.7843   12.8477   15.1488 O   0  0  0  0  0  0  0  0  0  0  0  0
    6.1163   11.6248   15.1917 C   0  0  2  0  0  0  0  0  0  0  0  0
    6.7415   10.6114   14.2664 C   0  0  0  0  0  0  0  0  0  0  0  0
    6.3298   10.7682   12.9458 O   0  0  0  0  0  0  0  0  0  0  0  0
    4.6459   11.8434   14.8104 C   0  0  1  0  0  0  0  0  0  0  0  0
    3.9399   11.9284   15.9846 O   0  0  0  0  0  0  0  0  0  0  0  0
    4.3559   11.0179   16.9257 C   0  0  0  0  0  2  0  0  0  0  0  0
    4.5880   13.0503   13.9469 C   0  0  1  0  0  0  0  0  0  0  0  0
    4.9890   12.8374   12.5324 C   0  0  2  0  0  0  0  0  0  0  0  0
    5.6698   14.1157   12.0433 C   0  0  0  0  0  3  0  0  0  0  0  0
    7.0357   13.9966   11.9928 O   0  0  0  0  0  0  0  0  0  0  0  0
    7.5031   13.3243   10.8864 C   0  0  0  0  0  2  0  0  0  0  0  0
    3.8128   12.6911   11.7734 O   0  0  0  0  0  0  0  0  0  0  0  0
    3.7655   13.5646   10.7056 C   0  0  1  0  0  0  0  0  0  0  0  0
    3.5555   14.9936   11.1297 C   0  0  0  0  0  3  0  0  0  0  0  0
    2.6576   15.1316   12.3172 C   0  0  0  0  0  3  0  0  0  0  0  0
    2.5490   13.9489   13.0378 O   0  0  0  0  0  0  0  0  0  0  0  0
    3.3960   13.9196   14.1455 C   0  0  2  0  0  0  0  0  0  0  0  0
    3.8988   15.3316   14.3202 C   0  0  0  0  0  0  0  0  0  0  0  0
    3.5887   16.0750   15.3495 C   0  0  0  0  0  0  0  0  0  0  0  0
    2.7118   15.5507   16.4103 C   0  0  0  0  0  0  0  0  0  0  0  0
    3.3363   15.8349   17.7577 C   0  0  0  0  0  3  0  0  0  0  0  0
    4.0039   14.6064   18.3129 C   0  0  0  0  0  3  0  0  0  0  0  0
    5.1005   15.0413   19.2607 C   0  0  0  0  0  2  0  0  0  0  0  0
    4.9395   13.4982    9.9582 O   0  0  0  0  0  0  0  0  0  0  0  0
    4.8952   12.3881    9.1193 C   0  0  0  0  0  3  0  0  0  0  0  0
    3.8511   11.4455    9.7060 C   0  0  0  0  0  3  0  0  0  0  0  0
    3.3490   10.4652    8.6648 C   0  0  0  0  0  0  0  0  0  0  0  0
    2.9451    9.1963    9.3808 C   0  0  0  0  0  3  0  0  0  0  0  0
    3.1490    8.1421    8.4993 O   0  0  0  0  0  0  0  0  0  0  0  0
    3.7220    8.5664    7.3061 C   0  0  0  0  0  3  0  0  0  0  0  0
    2.6401    8.9662    6.3211 C   0  0  0  0  0  3  0  0  0  0  0  0
    3.1119    8.8286    4.8847 C   0  0  0  0  0  3  0  0  0  0  0  0
    2.3952    9.6504    4.0243 O   0  0  0  0  0  0  0  0  0  0  0  0
    3.0119   10.8815    3.9166 C   0  0  0  0  0  3  0  0  0  0  0  0
    4.3943   10.7845    4.4939 C   0  0  2  0  0  0  0  0  0  0  0  0
    5.0712   12.1346    4.5624 C   0  0  0  0  0  3  0  0  0  0  0  0
    4.8323   12.9179    3.4526 O   0  0  0  0  0  0  0  0  0  0  0  0
    5.2506    9.7504    3.8025 C   0  0  0  0  0  3  0  0  0  0  0  0
    4.9042    9.6095    2.3413 C   0  0  0  0  0  2  0  0  0  0  0  0
  1  2  1  0
  2  3  1  0
  3  4  1  0
  4  5  1  0
  5  6  1  6
  6  7  1  0
  5  8  1  0
  8  9  1  1
  9 10  1  0
  8 11  1  0
 11 12  1  6
 12 13  1  6
 13 14  1  0
 14 15  1  0
 12 16  1  0
 16 17  1  0
 17 18  1  0
 18 19  1  0
 19 20  1  0
 21 20  1  6
 21 22  1  0
 22 23  2  3
 23 24  1  0
 24 25  1  0
 25 26  1  0
 26 27  1  0
 17 28  1  1
 28 29  1  0
 29 30  1  0
 30 31  1  0
 31 32  1  0
 32 33  1  0
 33 34  1  0
 34 35  1  0
 35 36  1  0
 36 37  1  0
 37 38  1  0
 39 38  1  6
 39 40  1  0
 40 41  1  0
 39 42  1  0
 42 43  1  0
 21 11  1  0
M  RAD  8   3   2  10   3  13   2  15   3  18   2  19   2  25   2  26   2
M  RAD  8  27   3  29   2  30   2  32   2  34   2  35   2  36   2  38   2
M  RAD  3  40   2  42   2  43   3
M  END
>  <docking_score>  (1) 
2.5819999999999999

$$$$
