
     RDKit          3D

 74 77  0  0  0  0  0  0  0  0999 V2000
   15.9631    5.3961   13.8610 C   0  0  0  0  0  0  0  0  0  0  0  0
   16.7515    4.9450   12.6439 C   0  0  1  0  0  0  0  0  0  0  0  0
   18.1315    4.5333   13.1734 C   0  0  0  0  0  0  0  0  0  0  0  0
   17.9563    3.5004   14.2826 C   0  0  2  0  0  0  0  0  0  0  0  0
   19.2235    3.1393   14.7203 O   0  0  0  0  0  0  0  0  0  0  0  0
   17.2826    2.2755   13.6788 C   0  0  2  0  0  0  0  0  0  0  0  0
   17.9656    1.9920   12.4810 O   0  0  0  0  0  0  0  0  0  0  0  0
   15.8859    2.7390   13.2502 C   0  0  1  0  0  0  0  0  0  0  0  0
   15.1984    3.2996   14.3027 O   0  0  0  0  0  0  0  0  0  0  0  0
   16.1056    3.7121   12.1037 C   0  0  1  0  0  0  0  0  0  0  0  0
   14.8380    3.9379   11.4765 N   0  0  0  0  0  0  0  0  0  0  0  0
   14.1734    2.6328   11.3749 C   0  0  0  0  0  3  0  0  0  0  0  0
   13.4642    2.4566   10.0704 C   0  0  2  0  0  0  0  0  0  0  0  0
   12.3309    1.4595   10.3035 C   0  0  0  0  0  2  0  0  0  0  0  0
   14.2877    1.8908    9.0799 O   0  0  0  0  0  0  0  0  0  0  0  0
   14.1922    2.5691    7.8750 C   0  0  0  0  0  0  0  0  0  0  0  0
   12.9108    2.4643    7.3627 O   0  0  0  0  0  0  0  0  0  0  0  0
   12.8616    3.1555    6.2452 O   0  0  0  0  0  0  0  0  0  0  0  0
   12.4393    2.3287    5.2003 C   0  0  1  0  0  0  0  0  0  0  0  0
   12.7472    0.9978    5.4545 O   0  0  0  0  0  0  0  0  0  0  0  0
   10.9670    2.4690    4.9131 C   0  0  2  0  0  0  0  0  0  0  0  0
   10.7317    2.7229    3.5697 O   0  0  0  0  0  0  0  0  0  0  0  0
   10.3205    3.5581    5.7381 C   0  0  0  0  0  3  0  0  0  0  0  0
    9.6594    4.6017    4.8700 C   0  0  0  0  0  3  0  0  0  0  0  0
    8.1676    4.4331    4.9829 C   0  0  0  0  0  0  0  0  0  0  0  0
    7.5560    5.1967    3.9845 O   0  0  0  0  0  0  0  0  0  0  0  0
    6.2247    5.2605    4.2269 N   0  0  0  0  0  3  0  0  0  0  0  0
    5.6700    6.0900    3.3089 O   0  0  0  0  0  0  0  0  0  0  0  0
    5.9834    5.8016    5.5443 C   0  0  0  0  0  3  0  0  0  0  0  0
    5.1007    6.8715    5.4710 O   0  0  0  0  0  0  0  0  0  0  0  0
    6.0316    8.3189    5.7173 P   0  0  0  0  0  0  0  0  0  0  0  0
    4.9693    9.6315    6.1242 O   0  0  0  0  0  0  0  0  0  0  0  0
    5.7554   10.6764    6.6599 C   0  0  0  0  0  3  0  0  0  0  0  0
    4.9190   11.9338    6.7037 C   0  0  2  0  0  0  0  0  0  0  0  0
    4.0328   11.9635    5.6353 F   0  0  0  0  0  0  0  0  0  0  0  0
    5.7924   13.0837    6.6226 N   0  0  0  0  0  0  0  0  0  0  0  0
    5.5229   14.0287    7.6884 C   0  0  0  0  0  3  0  0  0  0  0  0
    6.6485   14.0133    8.7129 C   0  0  0  0  0  0  0  0  0  0  0  0
    6.1757   13.3146    9.9514 C   0  0  2  0  0  0  0  0  0  0  0  0
    5.6570   14.2487   11.0091 C   0  0  0  0  0  3  0  0  0  0  0  0
    4.5376   14.9013   10.4913 O   0  0  0  0  0  0  0  0  0  0  0  0
    4.3476   16.0687   11.0250 O   0  0  0  0  0  0  0  0  0  0  0  0
    3.3767   15.9642   12.0204 C   0  0  0  0  0  2  0  0  0  0  0  0
    7.1762   12.3419   10.5064 C   0  0  0  0  0  0  0  0  0  0  0  0
    7.8495   12.8385   11.5982 O   0  0  0  0  0  0  0  0  0  0  0  0
    7.3133   12.3975   12.8175 C   0  0  2  0  0  0  0  0  0  0  0  0
    7.2949   13.6015   13.7570 C   0  0  0  0  0  3  0  0  0  0  0  0
    8.7361   13.9439   14.0673 C   0  0  1  0  0  0  0  0  0  0  0  0
    8.7544   15.2310   14.8779 C   0  0  2  0  0  0  0  0  0  0  0  0
   10.1546   15.8250   14.8654 C   0  0  0  0  0  0  0  0  0  0  0  0
    8.4011   14.9023   16.3209 C   0  0  0  0  0  3  0  0  0  0  0  0
    8.4009   16.0748   17.0689 O   0  0  0  0  0  0  0  0  0  0  0  0
    8.0494   15.7572   18.3792 C   0  0  0  0  0  0  0  0  0  0  0  0
    8.1274   11.3882   13.3167 O   0  0  0  0  0  0  0  0  0  0  0  0
    8.5064   11.5739   14.6247 C   0  0  2  0  0  0  0  0  0  0  0  0
    7.3972   11.6257   15.4601 O   0  0  0  0  0  0  0  0  0  0  0  0
    9.3282   12.8019   14.8641 C   0  0  1  0  0  0  0  0  0  0  0  0
   10.6694   12.6488   14.5847 O   0  0  0  0  0  0  0  0  0  0  0  0
   11.3011   12.2562   15.7654 C   0  0  1  0  0  0  0  0  0  0  0  0
   10.9148   10.8384   16.0404 C   0  0  0  0  0  0  0  0  0  0  0  0
   11.4901   10.3189   17.1780 O   0  0  0  0  0  0  0  0  0  0  0  0
   12.5005    9.5092   16.8851 O   0  0  0  0  0  0  0  0  0  0  0  0
   13.3953   10.2171   16.0903 C   0  0  2  0  0  0  0  0  0  0  0  0
   12.7911   10.3976   14.8298 O   0  0  0  0  0  0  0  0  0  0  0  0
   13.5099   11.2175   14.0892 O   0  0  0  0  0  0  0  0  0  0  0  0
   13.1852   12.5125   14.4684 C   0  0  2  0  0  0  0  0  0  0  0  0
   14.3388   13.2849   14.3914 O   0  0  0  0  0  0  0  0  0  0  0  0
   12.6540   12.4924   15.7690 O   0  0  0  0  0  0  0  0  0  0  0  0
   14.6210    9.3606   15.8972 C   0  0  2  0  0  0  0  0  0  0  0  0
   15.7813   10.1095   15.8345 O   0  0  0  0  0  0  0  0  0  0  0  0
   14.4918    8.5994   14.5816 C   0  0  0  0  0  3  0  0  0  0  0  0
   15.1366    7.3970   14.7380 O   0  0  0  0  0  0  0  0  0  0  0  0
   15.1785    6.6567   13.5709 C   0  0  1  0  0  0  0  0  0  0  0  0
   15.7872    7.4566   12.4388 C   0  0  0  0  0  2  0  0  0  0  0  0
  1  2  1  0
  2  3  1  1
  3  4  1  0
  4  5  1  6
  4  6  1  0
  6  7  1  6
  6  8  1  0
  8  9  1  1
  8 10  1  0
 10 11  1  1
 11 12  1  0
 12 13  1  0
 13 14  1  1
 13 15  1  0
 15 16  1  0
 16 17  1  0
 17 18  1  0
 18 19  1  0
 19 20  1  1
 19 21  1  0
 21 22  1  6
 21 23  1  0
 23 24  1  0
 24 25  1  0
 25 26  1  0
 26 27  1  0
 27 28  1  0
 27 29  1  0
 29 30  1  0
 30 31  1  0
 31 32  1  0
 32 33  1  0
 33 34  1  0
 34 35  1  6
 34 36  1  0
 36 37  1  0
 37 38  1  0
 38 39  1  0
 39 40  1  1
 40 41  1  0
 41 42  1  0
 42 43  1  0
 39 44  1  0
 44 45  1  0
 45 46  1  0
 46 47  1  1
 48 47  1  1
 48 49  1  0
 49 50  1  1
 49 51  1  0
 51 52  1  0
 52 53  1  0
 46 54  1  0
 54 55  1  0
 55 56  1  1
 55 57  1  0
 57 58  1  6
 58 59  1  0
 59 60  1  0
 60 61  1  0
 61 62  1  0
 62 63  1  0
 63 64  1  6
 64 65  1  0
 65 66  1  0
 66 67  1  1
 66 68  1  0
 63 69  1  0
 69 70  1  6
 69 71  1  0
 71 72  1  0
 72 73  1  0
 73 74  1  6
 73  1  1  0
 10  2  1  0
 57 48  1  0
 59 68  1  6
M  RAD  8  12   2  14   3  23   2  24   2  27   2  29   2  33   2  37   2
M  CHG  1  27   1
M  RAD  6  40   2  43   3  47   2  51   2  71   2  74   3
M  END
>  <docking_score>  (1) 
193.191

$$$$
