
     RDKit          3D

 63 62  0  0  0  0  0  0  0  0999 V2000
   14.5578    3.8672    5.4935 C   0  0  0  0  0  0  0  0  0  0  0  0
   13.7071    2.7047    5.8945 C   0  0  0  0  0  0  0  0  0  0  0  0
   13.6044    2.4451    7.2242 C   0  0  0  0  0  0  0  0  0  0  0  0
   12.7695    1.3047    7.6084 C   0  0  0  0  0  0  0  0  0  0  0  0
   11.4687    1.3417    7.6402 C   0  0  0  0  0  0  0  0  0  0  0  0
   10.6284    0.2022    8.0243 C   0  0  0  0  0  0  0  0  0  0  0  0
    9.6823    0.2527    9.1677 C   0  0  0  0  0  0  0  0  0  0  0  0
   10.7534   -0.9033    7.3061 C   0  0  0  0  0  0  0  0  0  0  0  0
    9.9940   -2.1280    7.5494 C   0  0  0  0  0  0  0  0  0  0  0  0
    9.1603   -2.0807    8.7926 C   0  0  0  0  0  0  0  0  0  0  0  0
    7.8476   -1.4567    8.5484 C   0  0  0  0  0  0  0  0  0  0  0  0
    7.5856   -0.3863    9.0226 O   0  0  0  0  0  0  0  0  0  0  0  0
   13.0149    1.8754    4.9613 C   0  0  0  0  0  0  0  0  0  0  0  0
   13.3253    0.7850    4.4449 C   0  0  0  0  0  0  0  0  0  0  0  0
   14.3885   -0.1866    4.4426 C   0  0  1  0  0  0  0  0  0  0  0  0
   15.4713    0.2568    5.4369 C   0  0  2  0  0  0  0  0  0  0  0  0
   14.9027    0.1794    6.8517 C   0  0  0  0  0  0  0  0  0  0  0  0
   15.7194    1.6969    5.1133 C   0  0  0  0  0  0  0  0  0  0  0  0
   15.8070    2.1908    3.9069 C   0  0  0  0  0  0  0  0  0  0  0  0
   15.6831    1.4415    2.6525 C   0  0  0  0  0  0  0  0  0  0  0  0
   16.7234    1.9232    1.6702 C   0  0  0  0  0  0  0  0  0  0  0  0
   13.7498   -1.8328    4.8377 S   0  0  0  0  0  0  0  0  0  0  0  0
   14.9896   -0.1913    3.0314 C   0  0  0  0  0  0  0  0  0  0  0  0
   14.7361   -1.5391    2.3656 C   0  0  0  0  0  0  0  0  0  0  0  0
   14.2780   -1.2554    0.9802 C   0  0  0  0  0  0  0  0  0  0  0  0
   14.8332   -1.9725    0.0226 C   0  0  0  0  0  0  0  0  0  0  0  0
   15.6283   -2.7660   -1.1535 S   0  0  0  0  0  0  0  0  0  0  0  0
   16.3050   -4.3526   -0.7240 N   0  0  0  0  0  0  0  0  0  0  0  0
   17.4365   -4.2172    0.1781 C   0  0  0  0  0  0  0  0  0  0  0  0
   17.9588   -2.8224    0.0424 C   0  0  0  0  0  0  0  0  0  0  0  0
   18.4744   -2.5036   -1.3440 C   0  0  0  0  0  0  0  0  0  0  0  0
   19.9587   -2.4202   -1.3318 C   0  0  0  0  0  0  0  0  0  0  0  0
   20.7043   -3.1340   -2.1611 C   0  0  0  0  0  0  0  0  0  0  0  0
   20.0390   -4.0424   -3.1305 C   0  0  0  0  0  0  0  0  0  0  0  0
   20.5045   -5.4371   -2.9732 C   0  0  0  0  0  0  0  0  0  0  0  0
   20.8199   -6.4546   -4.1553 S   0  0  0  0  0  0  0  0  0  0  0  0
   21.3407   -7.9862   -3.4531 N   0  0  0  0  0  0  0  0  0  0  0  0
   21.1653   -9.0792   -4.3951 C   0  0  0  0  0  0  0  0  0  0  0  0
   19.7568   -9.0318   -4.9043 C   0  0  2  0  0  0  0  0  0  0  0  0
   19.7198   -8.4419   -6.3023 C   0  0  0  0  0  0  0  0  0  0  0  0
   18.7420   -7.9916   -3.8346 S   0  0  0  0  0  0  0  0  0  0  0  0
   17.1369   -7.8292   -4.5415 N   0  0  0  0  0  0  0  0  0  0  0  0
   17.2053   -7.9034   -5.9895 C   0  0  0  0  0  0  0  0  0  0  0  0
   17.5892   -6.5991   -6.5873 C   0  0  0  0  0  0  0  0  0  0  0  0
   18.6882   -6.5261   -7.3019 C   0  0  0  0  0  0  0  0  0  0  0  0
   16.7710   -5.3656   -6.4044 C   0  0  0  0  0  0  0  0  0  0  0  0
   17.8466   -3.9327   -6.1265 S   0  0  0  0  0  0  0  0  0  0  0  0
   17.4031   -3.2347   -4.4965 C   0  0  0  0  0  0  0  0  0  0  0  0
   16.0070   -3.7223   -4.1574 C   0  0  2  0  0  0  0  0  0  0  0  0
   15.9894   -5.1572   -4.1055 N   0  0  0  0  0  0  0  0  0  0  0  0
   14.8873   -3.0964   -5.4456 S   0  0  0  0  0  0  0  0  0  0  0  0
   13.9356   -1.7522   -4.7672 C   0  0  0  0  0  0  0  0  0  0  0  0
   12.7262   -1.6800   -5.0871 O   0  0  0  0  0  0  0  0  0  0  0  0
   14.5032   -0.7584   -3.8743 C   0  0  0  0  0  0  0  0  0  0  0  0
   15.7367    0.1749   -4.3747 S   0  0  0  0  0  0  0  0  0  0  0  0
   16.5016    0.0861   -6.0138 C   0  0  0  0  0  0  0  0  0  0  0  0
   17.8826   -0.4713   -5.9864 C   0  0  0  0  0  0  0  0  0  0  0  0
   18.1135   -1.5553   -6.6889 C   0  0  0  0  0  0  0  0  0  0  0  0
   18.9192    0.2013   -5.1824 C   0  0  0  0  0  0  0  0  0  0  0  0
   19.9882   -0.7202   -4.6994 C   0  0  0  0  0  0  0  0  0  0  0  0
   20.7432   -1.2647   -5.8517 C   0  0  0  0  0  0  0  0  0  0  0  0
   20.8499   -2.7590   -5.9728 C   0  0  0  0  0  0  0  0  0  0  0  0
   21.2665   -0.5472   -6.6829 O   0  0  0  0  0  0  0  0  0  0  0  0
  1  2  1  0
  2  3  2  0
  3  4  1  0
  4  5  2  0
  5  6  1  0
  6  7  1  0
  6  8  2  0
  8  9  1  0
  9 10  1  0
 10 11  1  0
 11 12  2  0
  2 13  1  0
 13 14  2  3
 14 15  1  0
 15 16  1  0
 16 17  1  1
 16 18  1  0
 18 19  2  3
 19 20  1  0
 20 21  1  0
 15 22  1  1
 15 23  1  0
 23 24  1  0
 24 25  1  0
 25 26  2  0
 26 27  2  0
 27 28  1  0
 28 29  1  0
 29 30  1  0
 30 31  1  0
 31 32  1  0
 32 33  2  3
 33 34  1  0
 34 35  1  0
 35 36  2  3
 36 37  1  0
 37 38  1  0
 38 39  1  0
 39 40  1  6
 39 41  1  0
 41 42  1  0
 42 43  1  0
 43 44  1  0
 44 45  2  0
 44 46  1  0
 46 47  1  0
 47 48  1  0
 48 49  1  0
 49 50  1  6
 49 51  1  0
 51 52  1  0
 52 53  2  0
 52 54  1  0
 54 55  2  3
 55 56  1  0
 56 57  1  0
 57 58  2  0
 57 59  1  0
 59 60  1  0
 60 61  1  0
 61 62  1  0
 61 63  2  0
M  END
>  <docking_score>  (1) 
58.667000000000002

$$$$
