
     RDKit          3D

 21 23  0  0  0  0  0  0  0  0999 V2000
   19.2842   -8.8161   -7.2986 C   0  0  0  0  0  0  0  0  0  0  0  0
   18.2853   -8.6450   -8.3189 O   0  0  0  0  0  0  0  0  0  0  0  0
   17.7641   -7.6349   -7.5139 C   0  0  0  0  0  0  0  0  0  0  0  0
   17.2064   -6.4863   -7.2712 C   0  0  0  0  0  0  0  0  0  0  0  0
   16.7408   -5.4176   -8.0646 C   0  0  0  0  0  0  0  0  0  0  0  0
   15.6691   -4.6990   -7.6972 C   0  0  0  0  0  0  0  0  0  0  0  0
   14.9956   -5.0538   -6.4524 C   0  0  0  0  0  0  0  0  0  0  0  0
   15.3063   -4.1304   -5.2836 C   0  0  2  0  0  0  0  0  0  0  0  0
   15.6288   -4.9019   -4.0987 N   0  0  0  0  0  0  0  0  0  0  0  0
   16.8599   -4.9814   -3.4466 C   0  0  0  0  0  0  0  0  0  0  0  0
   17.7780   -5.8308   -3.8501 C   0  0  0  0  0  0  0  0  0  0  0  0
   17.6117   -6.7240   -4.9598 C   0  0  0  0  0  0  0  0  0  0  0  0
   18.4631   -7.7171   -5.1636 C   0  0  0  0  0  0  0  0  0  0  0  0
   18.1366   -8.5411   -6.3631 C   0  0  2  0  0  0  0  0  0  0  0  0
   17.2441   -9.6998   -6.1242 C   0  0  0  0  0  0  0  0  0  0  0  0
   14.1417   -3.2720   -5.0925 N   0  0  0  0  0  0  0  0  0  0  0  0
   14.4833   -1.8551   -5.2844 C   0  0  0  0  0  0  0  0  0  0  0  0
   15.3910   -1.5298   -4.1951 O   0  0  0  0  0  0  0  0  0  0  0  0
   16.0903   -2.5627   -3.6725 C   0  0  0  0  0  0  0  0  0  0  0  0
   16.4145   -2.8107   -2.4305 C   0  0  0  0  0  0  0  0  0  0  0  0
   17.2116   -4.0985   -2.2755 C   0  0  0  0  0  0  0  0  0  0  0  0
  1  2  1  0
  2  3  1  0
  3  4  2  3
  4  5  1  0
  5  6  2  3
  6  7  1  0
  8  7  1  6
  8  9  1  0
  9 10  1  0
 10 11  2  3
 11 12  1  0
 12 13  2  3
 13 14  1  0
 14 15  1  1
  8 16  1  0
 16 17  1  0
 17 18  1  0
 18 19  1  0
 19 20  2  3
 20 21  1  0
 14  1  1  0
 14  3  1  0
 21 10  1  0
M  END
>  <docking_score>  (1) 
-5.7270000000000003

$$$$

     RDKit          3D

 21 23  0  0  0  0  0  0  0  0999 V2000
   14.6222   -1.1111   -3.8658 C   0  0  0  0  0  0  0  0  0  0  0  0
   13.8281   -1.5430   -4.9843 O   0  0  0  0  0  0  0  0  0  0  0  0
   14.6762   -2.6462   -5.0459 C   0  0  0  0  0  0  0  0  0  0  0  0
   14.9763   -3.8976   -5.2282 C   0  0  0  0  0  0  0  0  0  0  0  0
   14.2491   -5.0572   -5.5671 C   0  0  0  0  0  0  0  0  0  0  0  0
   14.7996   -6.0246   -6.3162 C   0  0  0  0  0  0  0  0  0  0  0  0
   16.1737   -5.8444   -6.7729 C   0  0  0  0  0  0  0  0  0  0  0  0
   17.2059   -6.6461   -5.9937 C   0  0  2  0  0  0  0  0  0  0  0  0
   18.3314   -5.8071   -5.6299 N   0  0  0  0  0  0  0  0  0  0  0  0
   18.7127   -5.4071   -4.3485 C   0  0  0  0  0  0  0  0  0  0  0  0
   18.1655   -4.3533   -3.7852 C   0  0  0  0  0  0  0  0  0  0  0  0
   17.1592   -3.5429   -4.4079 C   0  0  0  0  0  0  0  0  0  0  0  0
   16.8279   -2.3657   -3.9010 C   0  0  0  0  0  0  0  0  0  0  0  0
   15.7642   -1.6645   -4.6765 C   0  0  2  0  0  0  0  0  0  0  0  0
   16.2402   -0.7731   -5.7605 C   0  0  0  0  0  0  0  0  0  0  0  0
   17.5971   -7.7741   -6.8329 N   0  0  0  0  0  0  0  0  0  0  0  0
   17.2709   -9.0566   -6.1928 C   0  0  0  0  0  0  0  0  0  0  0  0
   18.1280   -9.1272   -5.0194 O   0  0  0  0  0  0  0  0  0  0  0  0
   18.5398   -7.9443   -4.5093 C   0  0  0  0  0  0  0  0  0  0  0  0
   19.6960   -7.6101   -3.9988 C   0  0  0  0  0  0  0  0  0  0  0  0
   19.7405   -6.1590   -3.5404 C   0  0  0  0  0  0  0  0  0  0  0  0
  1  2  1  0
  2  3  1  0
  3  4  2  3
  4  5  1  0
  5  6  2  3
  6  7  1  0
  8  7  1  6
  8  9  1  0
  9 10  1  0
 10 11  2  3
 11 12  1  0
 12 13  2  3
 13 14  1  0
 14 15  1  6
  8 16  1  0
 16 17  1  0
 17 18  1  0
 18 19  1  0
 19 20  2  3
 20 21  1  0
 14  1  1  0
 14  3  1  0
 21 10  1  0
M  END
>  <docking_score>  (2) 
-5.6100000000000003

$$$$

     RDKit          3D

 21 23  0  0  0  0  0  0  0  0999 V2000
   14.5798   -5.3409   -8.3814 C   0  0  0  0  0  0  0  0  0  0  0  0
   14.1557   -3.9668   -8.3857 O   0  0  0  0  0  0  0  0  0  0  0  0
   15.0520   -3.7801   -7.3360 C   0  0  0  0  0  0  0  0  0  0  0  0
   15.9419   -3.1351   -6.6423 C   0  0  0  0  0  0  0  0  0  0  0  0
   16.5742   -1.8797   -6.7544 C   0  0  0  0  0  0  0  0  0  0  0  0
   16.9131   -1.1760   -5.6635 C   0  0  0  0  0  0  0  0  0  0  0  0
   16.6087   -1.7448   -4.3548 C   0  0  0  0  0  0  0  0  0  0  0  0
   17.8061   -2.3518   -3.6386 C   0  0  2  0  0  0  0  0  0  0  0  0
   17.4739   -3.6629   -3.1154 N   0  0  0  0  0  0  0  0  0  0  0  0
   17.9880   -4.8946   -3.5229 C   0  0  0  0  0  0  0  0  0  0  0  0
   17.4668   -5.5321   -4.5472 C   0  0  0  0  0  0  0  0  0  0  0  0
   16.3618   -5.0419   -5.3189 C   0  0  0  0  0  0  0  0  0  0  0  0
   15.7281   -5.8313   -6.1721 C   0  0  0  0  0  0  0  0  0  0  0  0
   14.6086   -5.1535   -6.8875 C   0  0  2  0  0  0  0  0  0  0  0  0
   13.2829   -5.2336   -6.2300 C   0  0  0  0  0  0  0  0  0  0  0  0
   18.2009   -1.4151   -2.5914 N   0  0  0  0  0  0  0  0  0  0  0  0
   19.5700   -0.9227   -2.8013 C   0  0  0  0  0  0  0  0  0  0  0  0
   20.4256   -2.0863   -2.6272 O   0  0  0  0  0  0  0  0  0  0  0  0
   19.8538   -3.2884   -2.8654 C   0  0  0  0  0  0  0  0  0  0  0  0
   20.0091   -4.4273   -2.2426 C   0  0  0  0  0  0  0  0  0  0  0  0
   19.1641   -5.5448   -2.8383 C   0  0  0  0  0  0  0  0  0  0  0  0
  1  2  1  0
  2  3  1  0
  3  4  2  3
  4  5  1  0
  5  6  2  3
  6  7  1  0
  8  7  1  1
  8  9  1  0
  9 10  1  0
 10 11  2  3
 11 12  1  0
 12 13  2  3
 13 14  1  0
 14 15  1  1
  8 16  1  0
 16 17  1  0
 17 18  1  0
 18 19  1  0
 19 20  2  3
 20 21  1  0
 14  1  1  0
 14  3  1  0
 21 10  1  0
M  END
>  <docking_score>  (3) 
-5.5750000000000002

$$$$
