
     RDKit          3D

 24 25  0  0  0  0  0  0  0  0999 V2000
   18.7861   -4.8295   -8.0212 C   0  0  0  0  0  0  0  0  0  0  0  0
   18.6267   -6.3143   -7.7263 C   0  0  1  0  0  0  0  0  0  0  0  0
   19.8976   -6.7294   -6.9962 C   0  0  0  0  0  0  0  0  0  0  0  0
   19.8555   -8.1785   -6.6476 C   0  0  2  0  0  0  0  0  0  0  0  0
   20.7799   -8.9448   -7.3563 O   0  0  0  0  0  0  0  0  0  0  0  0
   18.4320   -8.7172   -6.8372 C   0  0  2  0  0  0  0  0  0  0  0  0
   18.1340   -8.4978   -8.1885 O   0  0  0  0  0  0  0  0  0  0  0  0
   17.5494   -7.7470   -6.0396 C   0  0  1  0  0  0  0  0  0  0  0  0
   18.1508   -7.5630   -4.8028 O   0  0  0  0  0  0  0  0  0  0  0  0
   17.4428   -6.4824   -6.7871 C   0  0  1  0  0  0  0  0  0  0  0  0
   17.1991   -5.2948   -6.0200 N   0  0  0  0  0  0  0  0  0  0  0  0
   15.8373   -5.1777   -5.5953 C   0  0  1  0  0  0  0  0  0  0  0  0
   15.7534   -4.7185   -4.1319 C   0  0  0  0  0  0  0  0  0  0  0  0
   16.0053   -3.2228   -4.0547 C   0  0  0  0  0  3  0  0  0  0  0  0
   16.4523   -2.9137   -2.7905 O   0  0  0  0  0  0  0  0  0  0  0  0
   14.8424   -2.3902   -4.5190 C   0  0  1  0  0  0  0  0  0  0  0  0
   14.6622   -1.2632   -3.7102 O   0  0  0  0  0  0  0  0  0  0  0  0
   15.0521   -1.8755   -5.9242 C   0  0  1  0  0  0  0  0  0  0  0  0
   15.6087   -0.6280   -6.0059 O   0  0  0  0  0  0  0  0  0  0  0  0
   15.7788   -2.9477   -6.6970 C   0  0  2  0  0  0  0  0  0  0  0  0
   15.9344   -2.6907   -8.0371 O   0  0  0  0  0  0  0  0  0  0  0  0
   15.0446   -4.2334   -6.4090 C   0  0  1  0  0  0  0  0  0  0  0  0
   14.4386   -4.7923   -7.5213 O   0  0  0  0  0  0  0  0  0  0  0  0
   13.3201   -5.3598   -7.1236 O   0  0  0  0  0  0  0  0  0  0  0  0
  2  1  1  1
  2  3  1  0
  3  4  1  0
  4  5  1  6
  4  6  1  0
  6  7  1  6
  6  8  1  0
  8  9  1  1
  8 10  1  0
 10 11  1  1
 12 11  1  6
 12 13  1  0
 13 14  1  0
 14 15  1  0
 14 16  1  0
 16 17  1  1
 16 18  1  0
 18 19  1  1
 18 20  1  0
 20 21  1  6
 20 22  1  0
 22 23  1  6
 23 24  1  0
 10  2  1  0
 22 12  1  0
M  RAD  1  14   2
M  END
>  <docking_score>  (1) 
-4.5899999999999999

$$$$

     RDKit          3D

 24 25  0  0  0  0  0  0  0  0999 V2000
   18.1742   -6.2203   -3.6396 C   0  0  0  0  0  0  0  0  0  0  0  0
   18.3336   -6.7233   -5.0674 C   0  0  1  0  0  0  0  0  0  0  0  0
   17.2341   -7.7589   -5.2660 C   0  0  0  0  0  0  0  0  0  0  0  0
   17.2868   -8.3255   -6.6442 C   0  0  2  0  0  0  0  0  0  0  0  0
   17.6682   -9.6662   -6.6766 O   0  0  0  0  0  0  0  0  0  0  0  0
   18.2070   -7.4691   -7.5231 C   0  0  2  0  0  0  0  0  0  0  0  0
   19.4583   -7.5118   -6.8943 O   0  0  0  0  0  0  0  0  0  0  0  0
   17.6828   -6.0379   -7.3401 C   0  0  1  0  0  0  0  0  0  0  0  0
   16.3026   -6.0830   -7.4753 O   0  0  0  0  0  0  0  0  0  0  0  0
   18.0843   -5.5549   -6.0078 C   0  0  1  0  0  0  0  0  0  0  0  0
   17.2529   -4.5536   -5.4040 N   0  0  0  0  0  0  0  0  0  0  0  0
   17.7844   -3.2321   -5.5440 C   0  0  1  0  0  0  0  0  0  0  0  0
   17.1571   -2.5096   -6.7456 C   0  0  0  0  0  0  0  0  0  0  0  0
   15.7707   -2.0147   -6.3722 C   0  0  0  0  0  3  0  0  0  0  0  0
   15.0293   -1.8652   -7.5219 O   0  0  0  0  0  0  0  0  0  0  0  0
   15.7819   -0.8022   -5.4830 C   0  0  1  0  0  0  0  0  0  0  0  0
   14.7817    0.1075   -5.8423 O   0  0  0  0  0  0  0  0  0  0  0  0
   15.5248   -1.1680   -4.0395 C   0  0  1  0  0  0  0  0  0  0  0  0
   14.2160   -1.0893   -3.6475 O   0  0  0  0  0  0  0  0  0  0  0  0
   16.1863   -2.4991   -3.7836 C   0  0  2  0  0  0  0  0  0  0  0  0
   16.1582   -2.9175   -2.4758 O   0  0  0  0  0  0  0  0  0  0  0  0
   17.5787   -2.3841   -4.3520 C   0  0  1  0  0  0  0  0  0  0  0  0
   18.5800   -2.4684   -3.3996 O   0  0  0  0  0  0  0  0  0  0  0  0
   18.9268   -1.2413   -3.0753 O   0  0  0  0  0  0  0  0  0  0  0  0
  2  1  1  1
  2  3  1  0
  3  4  1  0
  4  5  1  1
  4  6  1  0
  6  7  1  1
  6  8  1  0
  8  9  1  1
  8 10  1  0
 10 11  1  1
 12 11  1  1
 12 13  1  0
 13 14  1  0
 14 15  1  0
 14 16  1  0
 16 17  1  6
 16 18  1  0
 18 19  1  6
 18 20  1  0
 20 21  1  1
 20 22  1  0
 22 23  1  1
 23 24  1  0
 10  2  1  0
 22 12  1  0
M  RAD  1  14   2
M  END
>  <docking_score>  (2) 
-4.4770000000000003

$$$$

     RDKit          3D

 24 25  0  0  0  0  0  0  0  0999 V2000
   16.2463   -6.5158   -4.5600 C   0  0  0  0  0  0  0  0  0  0  0  0
   15.9479   -6.0069   -5.9632 C   0  0  1  0  0  0  0  0  0  0  0  0
   14.5161   -5.4885   -5.9190 C   0  0  0  0  0  0  0  0  0  0  0  0
   14.1079   -4.9546   -7.2500 C   0  0  2  0  0  0  0  0  0  0  0  0
   13.1287   -5.7236   -7.8776 O   0  0  0  0  0  0  0  0  0  0  0  0
   15.3422   -4.7949   -8.1465 C   0  0  2  0  0  0  0  0  0  0  0  0
   15.8909   -6.0801   -8.2469 O   0  0  0  0  0  0  0  0  0  0  0  0
   16.3237   -3.9738   -7.2986 C   0  0  1  0  0  0  0  0  0  0  0  0
   15.6141   -2.9105   -6.7590 O   0  0  0  0  0  0  0  0  0  0  0  0
   16.8836   -4.8433   -6.2499 C   0  0  1  0  0  0  0  0  0  0  0  0
   17.3221   -4.2031   -5.0432 N   0  0  0  0  0  0  0  0  0  0  0  0
   18.7479   -4.1389   -4.9351 C   0  0  1  0  0  0  0  0  0  0  0  0
   19.3017   -2.9067   -5.6662 C   0  0  0  0  0  0  0  0  0  0  0  0
   19.0864   -1.6705   -4.8108 C   0  0  0  0  0  3  0  0  0  0  0  0
   19.0735   -0.5632   -5.6279 O   0  0  0  0  0  0  0  0  0  0  0  0
   20.0344   -1.5685   -3.6481 C   0  0  1  0  0  0  0  0  0  0  0  0
   20.4658   -0.2525   -3.4509 O   0  0  0  0  0  0  0  0  0  0  0  0
   19.3792   -1.9988   -2.3561 C   0  0  1  0  0  0  0  0  0  0  0  0
   18.8245   -0.9847   -1.6235 O   0  0  0  0  0  0  0  0  0  0  0  0
   18.4424   -3.1361   -2.6787 C   0  0  2  0  0  0  0  0  0  0  0  0
   17.8599   -3.7335   -1.5878 O   0  0  0  0  0  0  0  0  0  0  0  0
   19.2322   -4.0895   -3.5404 C   0  0  1  0  0  0  0  0  0  0  0  0
   19.4451   -5.3261   -2.9555 O   0  0  0  0  0  0  0  0  0  0  0  0
   20.7123   -5.6360   -3.1271 O   0  0  0  0  0  0  0  0  0  0  0  0
  2  1  1  1
  2  3  1  0
  3  4  1  0
  4  5  1  6
  4  6  1  0
  6  7  1  1
  6  8  1  0
  8  9  1  1
  8 10  1  0
 10 11  1  1
 12 11  1  1
 12 13  1  0
 13 14  1  0
 14 15  1  0
 14 16  1  0
 16 17  1  1
 16 18  1  0
 18 19  1  6
 18 20  1  0
 20 21  1  1
 20 22  1  0
 22 23  1  1
 23 24  1  0
 10  2  1  0
 22 12  1  0
M  RAD  1  14   2
M  END
>  <docking_score>  (3) 
-4.3970000000000002

$$$$
