
     RDKit          3D

 52 55  0  0  0  0  0  0  0  0999 V2000
   18.1685    6.7963   -6.0774 C   0  0  0  0  0  0  0  0  0  0  0  0
   18.9800    6.0229   -5.0481 C   0  0  0  0  0  0  0  0  0  0  0  0
   19.8221    6.9639   -4.2067 C   0  0  0  0  0  0  0  0  0  0  0  0
   19.9264    5.0549   -5.7105 C   0  0  0  0  0  0  0  0  0  0  0  0
   20.5045    4.1084   -4.7117 C   0  0  0  0  0  0  0  0  0  0  0  0
   21.2810    2.9580   -5.3717 C   0  0  0  0  0  0  0  0  0  0  0  0
   21.3808    1.8191   -4.3497 C   0  0  1  0  0  0  0  0  0  0  0  0
   20.8053    2.2482   -3.0179 C   0  0  0  0  0  0  0  0  0  0  0  0
   20.5974    0.6758   -4.9531 C   0  0  0  0  0  3  0  0  0  0  0  0
   19.8715   -0.0254   -3.8412 C   0  0  0  0  0  0  0  0  0  0  0  0
   18.4230   -0.2123   -4.0912 C   0  0  0  0  0  0  0  0  0  0  0  0
   17.7851   -1.4505   -3.6270 C   0  0  1  0  0  0  0  0  0  0  0  0
   17.9395   -2.6894   -4.3906 C   0  0  0  0  0  0  0  0  0  0  0  0
   17.9272   -1.6656   -2.1207 C   0  0  0  0  0  0  0  0  0  0  0  0
   18.2071   -3.1585   -1.9550 C   0  0  2  0  0  0  0  0  0  0  0  0
   17.1706   -3.8326   -1.1100 C   0  0  0  0  0  0  0  0  0  0  0  0
   19.6039   -3.3254   -1.4679 C   0  0  0  0  0  0  0  0  0  0  0  0
   20.4809   -3.7756   -2.6132 C   0  0  1  0  0  0  0  0  0  0  0  0
   21.3822   -4.8987   -2.1632 C   0  0  1  0  0  0  0  0  0  0  0  0
   21.3495   -5.1414   -0.7787 O   0  0  0  0  0  0  0  0  0  0  0  0
   20.4546   -5.9107   -2.8487 C   0  0  0  0  0  0  0  0  0  0  0  0
   19.7234   -4.7330   -3.4604 C   0  0  2  0  0  0  0  0  0  0  0  0
   19.9315   -4.6426   -4.9209 C   0  0  2  0  0  0  0  0  0  0  0  0
   21.2514   -5.1957   -5.4209 C   0  0  0  0  0  0  0  0  0  0  0  0
   21.3482   -4.6149   -6.6718 O   0  0  0  0  0  0  0  0  0  0  0  0
   20.7955   -3.4057   -6.6613 N   0  0  0  0  0  0  0  0  0  0  0  0
   20.0237   -3.2323   -5.4737 C   0  0  1  0  0  0  0  0  0  0  0  0
   18.6327   -2.6729   -5.6972 C   0  0  2  0  0  0  0  0  0  0  0  0
   18.6257   -1.3797   -6.4318 C   0  0  0  0  0  0  0  0  0  0  0  0
   17.8683   -3.6659   -6.6070 C   0  0  0  0  0  0  0  0  0  0  0  0
   17.6076   -4.8314   -5.9182 O   0  0  0  0  0  0  0  0  0  0  0  0
   17.9251   -5.9362   -6.6881 C   0  0  0  0  0  0  0  0  0  0  0  0
   16.7079   -6.8038   -6.8509 C   0  0  0  0  0  3  0  0  0  0  0  0
   16.0382   -6.9082   -5.4985 C   0  0  0  0  0  0  0  0  0  0  0  0
   14.6029   -6.9418   -5.6762 N   0  0  0  0  0  0  0  0  0  0  0  0
   14.1694   -5.6538   -6.1580 C   0  0  1  0  0  0  0  0  0  0  0  0
   13.7874   -5.7917   -7.6110 C   0  0  1  0  0  0  0  0  0  0  0  0
   12.0018   -6.0305   -7.8068 S   0  0  0  0  0  0  0  0  0  0  0  0
   14.2878   -4.5937   -8.3980 C   0  0  0  0  0  0  0  0  0  0  0  0
   15.2931   -3.8716   -7.5304 C   0  0  0  0  0  0  0  0  0  0  0  0
   16.3915   -3.3045   -8.3916 C   0  0  0  0  0  0  0  0  0  0  0  0
   16.0030   -1.8635   -8.7315 C   0  0  0  0  0  0  0  0  0  0  0  0
   14.5322   -1.6365   -8.4237 C   0  0  0  0  0  0  0  0  0  0  0  0
   14.3529   -0.5947   -7.3499 C   0  0  0  0  0  0  0  0  0  0  0  0
   14.9055   -1.0608   -6.0157 C   0  0  1  0  0  0  0  0  0  0  0  0
   16.0593   -0.1902   -5.5650 C   0  0  0  0  0  2  0  0  0  0  0  0
   13.8123   -1.0964   -4.9718 C   0  0  0  0  0  0  0  0  0  0  0  0
   13.5005   -2.5542   -4.6976 C   0  0  0  0  0  0  0  0  0  0  0  0
   12.1269   -2.9407   -5.1856 C   0  0  0  0  0  3  0  0  0  0  0  0
   12.1821   -4.1438   -6.1063 C   0  0  0  0  0  0  0  0  0  0  0  0
   12.9511   -5.2336   -5.3890 C   0  0  2  0  0  0  0  0  0  0  0  0
   13.2819   -4.8319   -3.9672 C   0  0  0  0  0  2  0  0  0  0  0  0
  1  2  1  0
  2  3  1  0
  2  4  1  0
  4  5  1  0
  5  6  1  0
  6  7  1  0
  7  8  1  1
  7  9  1  0
  9 10  1  0
 10 11  1  0
 12 11  1  6
 12 13  1  0
 12 14  1  0
 14 15  1  0
 15 16  1  1
 15 17  1  0
 18 17  1  1
 18 19  1  0
 19 20  1  1
 19 21  1  0
 22 21  1  1
 22 23  1  0
 23 24  1  1
 24 25  1  0
 25 26  1  0
 27 26  1  6
 27 28  1  0
 28 29  1  6
 28 30  1  0
 30 31  1  0
 31 32  1  0
 32 33  1  0
 33 34  1  0
 34 35  1  0
 36 35  1  1
 36 37  1  0
 37 38  1  1
 37 39  1  0
 39 40  1  0
 40 41  1  0
 41 42  1  0
 42 43  1  0
 43 44  1  0
 44 45  1  0
 45 46  1  1
 45 47  1  0
 47 48  1  0
 48 49  1  0
 49 50  1  0
 50 51  1  0
 51 52  1  1
 28 13  1  0
 22 18  1  0
 27 23  1  0
 51 36  1  0
M  RAD  5   9   2  33   2  46   3  49   2  52   3
M  END
>  <docking_score>  (1) 
5.2969999999999997

$$$$

     RDKit          3D

 52 55  0  0  0  0  0  0  0  0999 V2000
    7.0735    7.2364   12.3807 C   0  0  0  0  0  0  0  0  0  0  0  0
    5.6196    7.5023   12.7435 C   0  0  0  0  0  0  0  0  0  0  0  0
    4.7337    6.3526   12.3009 C   0  0  0  0  0  0  0  0  0  0  0  0
    5.1034    8.7451   12.0649 C   0  0  0  0  0  0  0  0  0  0  0  0
    4.3003    8.3967   10.8560 C   0  0  0  0  0  0  0  0  0  0  0  0
    2.8152    8.7603   11.0111 C   0  0  0  0  0  0  0  0  0  0  0  0
    2.6482   10.2228   10.5810 C   0  0  1  0  0  0  0  0  0  0  0  0
    2.4515   11.1126   11.7886 C   0  0  0  0  0  0  0  0  0  0  0  0
    3.9192   10.5646    9.8377 C   0  0  0  0  0  3  0  0  0  0  0  0
    4.7962   11.3593   10.7618 C   0  0  0  0  0  0  0  0  0  0  0  0
    6.2049   11.4631   10.3144 C   0  0  0  0  0  0  0  0  0  0  0  0
    7.0674   12.4726   10.9411 C   0  0  1  0  0  0  0  0  0  0  0  0
    6.6664   13.8801   10.9507 C   0  0  0  0  0  0  0  0  0  0  0  0
    7.6439   12.0154   12.2805 C   0  0  0  0  0  0  0  0  0  0  0  0
    7.5732   13.2440   13.1861 C   0  0  2  0  0  0  0  0  0  0  0  0
    8.9246   13.6468   13.6905 C   0  0  0  0  0  0  0  0  0  0  0  0
    6.5681   12.9862   14.2535 C   0  0  0  0  0  0  0  0  0  0  0  0
    5.2980   13.7403   13.9349 C   0  0  1  0  0  0  0  0  0  0  0  0
    4.7807   14.4279   15.1743 C   0  0  1  0  0  0  0  0  0  0  0  0
    5.4585   14.0718   16.3535 O   0  0  0  0  0  0  0  0  0  0  0  0
    5.3596   15.7572   14.6722 C   0  0  0  0  0  0  0  0  0  0  0  0
    5.6484   15.0635   13.3564 C   0  0  2  0  0  0  0  0  0  0  0  0
    4.7907   15.5623   12.2608 C   0  0  2  0  0  0  0  0  0  0  0  0
    3.4294   16.0744   12.6881 C   0  0  0  0  0  0  0  0  0  0  0  0
    2.7326   16.0621   11.4940 O   0  0  0  0  0  0  0  0  0  0  0  0
    3.1451   15.0540   10.7314 N   0  0  0  0  0  0  0  0  0  0  0  0
    4.3601   14.5151   11.2503 C   0  0  1  0  0  0  0  0  0  0  0  0
    5.4537   14.3100   10.2209 C   0  0  2  0  0  0  0  0  0  0  0  0
    5.0361   13.4583    9.0754 C   0  0  0  0  0  0  0  0  0  0  0  0
    5.7842   15.6921    9.6057 C   0  0  0  0  0  0  0  0  0  0  0  0
    6.6388   15.5392    8.5347 O   0  0  0  0  0  0  0  0  0  0  0  0
    5.9477   15.1147    7.4139 C   0  0  0  0  0  0  0  0  0  0  0  0
    4.5072   14.8739    7.7713 C   0  0  0  0  0  3  0  0  0  0  0  0
    4.0976   13.5563    7.1512 C   0  0  0  0  0  0  0  0  0  0  0  0
    3.6373   13.7859    5.7991 N   0  0  0  0  0  0  0  0  0  0  0  0
    4.1451   12.7324    4.9558 C   0  0  1  0  0  0  0  0  0  0  0  0
    4.7123   13.3548    3.7039 C   0  0  1  0  0  0  0  0  0  0  0  0
    6.5053   13.5842    3.8320 S   0  0  0  0  0  0  0  0  0  0  0  0
    4.3332   12.5246    2.4906 C   0  0  0  0  0  0  0  0  0  0  0  0
    3.2315   11.5810    2.9157 C   0  0  0  0  0  0  0  0  0  0  0  0
    2.2620   11.3886    1.7787 C   0  0  0  0  0  0  0  0  0  0  0  0
    2.7084   10.1439    1.0077 C   0  0  0  0  0  0  0  0  0  0  0  0
    4.1288    9.7724    1.4001 C   0  0  0  0  0  0  0  0  0  0  0  0
    4.1783    8.4160    2.0545 C   0  0  0  0  0  0  0  0  0  0  0  0
    3.4504    8.4067    3.3860 C   0  0  1  0  0  0  0  0  0  0  0  0
    2.2577    7.4746    3.3532 C   0  0  0  0  0  2  0  0  0  0  0  0
    4.3971    8.0379    4.5057 C   0  0  0  0  0  0  0  0  0  0  0  0
    4.6532    9.2967    5.3103 C   0  0  0  0  0  0  0  0  0  0  0  0
    6.0743    9.7808    5.1667 C   0  0  0  0  0  3  0  0  0  0  0  0
    6.1260   11.2305    4.7265 C   0  0  0  0  0  0  0  0  0  0  0  0
    5.2571   12.0281    5.6765 C   0  0  2  0  0  0  0  0  0  0  0  0
    4.7477   11.1677    6.8135 C   0  0  0  0  0  2  0  0  0  0  0  0
  1  2  1  0
  2  3  1  0
  2  4  1  0
  4  5  1  0
  5  6  1  0
  6  7  1  0
  7  8  1  1
  7  9  1  0
  9 10  1  0
 10 11  1  0
 12 11  1  1
 12 13  1  0
 12 14  1  0
 14 15  1  0
 15 16  1  1
 15 17  1  0
 18 17  1  1
 18 19  1  0
 19 20  1  1
 19 21  1  0
 22 21  1  1
 22 23  1  0
 23 24  1  1
 24 25  1  0
 25 26  1  0
 27 26  1  6
 27 28  1  0
 28 29  1  6
 28 30  1  0
 30 31  1  0
 31 32  1  0
 32 33  1  0
 33 34  1  0
 34 35  1  0
 36 35  1  1
 36 37  1  0
 37 38  1  1
 37 39  1  0
 39 40  1  0
 40 41  1  0
 41 42  1  0
 42 43  1  0
 43 44  1  0
 44 45  1  0
 45 46  1  6
 45 47  1  0
 47 48  1  0
 48 49  1  0
 49 50  1  0
 50 51  1  0
 51 52  1  1
 28 13  1  0
 22 18  1  0
 27 23  1  0
 51 36  1  0
M  RAD  5   9   2  33   2  46   3  49   2  52   3
M  END
>  <docking_score>  (2) 
5.5190000000000001

$$$$
