
     RDKit          3D

  7  7  0  0  0  0  0  0  0  0999 V2000
    6.3482    1.5892   26.8727 C   0  0  0  0  0  0  0  0  0  0  0  0
    5.6734    0.4416   26.4731 O   0  0  0  0  0  0  0  0  0  0  0  0
    6.0601   -0.5485   25.5837 C   0  0  0  0  0  0  0  0  0  0  0  0
    6.9866   -0.4809   24.6471 C   0  0  0  0  0  0  0  0  0  0  0  0
    7.8095    0.6851   24.3566 C   0  0  0  0  0  0  0  0  0  0  0  0
    7.9660    1.8174   25.0240 C   0  0  0  0  0  0  0  0  0  0  0  0
    7.3296    2.1723   26.2458 N   0  0  0  0  0  0  0  0  0  0  0  0
  1  2  1  0
  2  3  1  0
  3  4  2  0
  4  5  1  0
  5  6  2  0
  6  7  1  0
  1  7  2  0
M  END
>  <docking_score>  (1) 
-3.496

$$$$

     RDKit          3D

  7  7  0  0  0  0  0  0  0  0999 V2000
    6.3954    1.7347   26.5935 C   0  0  0  0  0  0  0  0  0  0  0  0
    7.5153    2.1964   25.9118 O   0  0  0  0  0  0  0  0  0  0  0  0
    8.0704    1.7564   24.7205 C   0  0  0  0  0  0  0  0  0  0  0  0
    7.8930    0.5936   24.1234 C   0  0  0  0  0  0  0  0  0  0  0  0
    7.0520   -0.4886   24.6163 C   0  0  0  0  0  0  0  0  0  0  0  0
    6.1707   -0.5140   25.6035 C   0  0  0  0  0  0  0  0  0  0  0  0
    5.8255    0.5717   26.4554 N   0  0  0  0  0  0  0  0  0  0  0  0
  1  2  1  0
  2  3  1  0
  3  4  2  0
  4  5  1  0
  5  6  2  0
  6  7  1  0
  1  7  2  0
M  END
>  <docking_score>  (2) 
-3.4079999999999999

$$$$

     RDKit          3D

  7  7  0  0  0  0  0  0  0  0999 V2000
    5.1664    0.7619   25.2667 C   0  0  0  0  0  0  0  0  0  0  0  0
    6.0054    0.9711   24.1784 O   0  0  0  0  0  0  0  0  0  0  0  0
    7.3503    1.3047   24.1485 C   0  0  0  0  0  0  0  0  0  0  0  0
    8.0750    1.8403   25.1120 C   0  0  0  0  0  0  0  0  0  0  0  0
    7.5863    2.1965   26.4370 C   0  0  0  0  0  0  0  0  0  0  0  0
    6.4380    1.9212   27.0348 C   0  0  0  0  0  0  0  0  0  0  0  0
    5.3593    1.1725   26.4875 N   0  0  0  0  0  0  0  0  0  0  0  0
  1  2  1  0
  2  3  1  0
  3  4  2  0
  4  5  1  0
  5  6  2  0
  6  7  1  0
  1  7  2  0
M  END
>  <docking_score>  (3) 
-3.391

$$$$
