
     RDKit          3D

 31 32  0  0  0  0  0  0  0  0999 V2000
   16.2009   -5.2583   -6.5121 C   0  0  0  0  0  0  0  0  0  0  0  0
   15.3276   -4.7204   -7.6222 C   0  0  1  0  0  0  0  0  0  0  0  0
   13.9137   -5.2045   -7.3467 C   0  0  0  0  0  0  0  0  0  0  0  0
   15.2783   -3.1905   -7.5712 C   0  0  0  0  0  0  0  0  0  0  0  0
   15.3754   -2.8117   -6.1034 C   0  0  0  0  0  0  0  0  0  0  0  0
   14.2341   -1.9410   -5.6645 C   0  0  0  0  0  0  0  0  0  0  0  0
   14.8194   -0.8105   -4.8227 C   0  0  1  0  0  0  0  0  0  0  0  0
   13.7522   -0.3524   -3.8770 C   0  0  0  0  0  0  0  0  0  0  0  0
   16.0735   -1.2828   -4.0915 C   0  0  0  0  0  3  0  0  0  0  0  0
   15.8182   -2.5795   -3.3890 C   0  0  0  0  0  0  0  0  0  0  0  0
   16.9175   -3.5774   -3.5240 C   0  0  0  0  0  0  0  0  0  0  0  0
   18.2214   -3.0050   -3.9860 C   0  0  2  0  0  0  0  0  0  0  0  0
   19.2344   -4.1145   -4.0490 C   0  0  0  0  0  0  0  0  0  0  0  0
   20.2732   -3.9407   -5.0918 C   0  0  1  0  0  0  0  0  0  0  0  0
   20.7671   -5.3090   -5.5109 C   0  0  0  0  0  0  0  0  0  0  0  0
   20.6443   -6.3258   -4.4072 C   0  0  2  0  0  0  0  0  0  0  0  0
   21.3716   -5.9048   -3.1541 C   0  0  0  0  0  0  0  0  0  0  0  0
   21.0380   -7.7116   -4.8566 C   0  0  0  0  0  0  0  0  0  0  0  0
   19.8142   -8.3702   -5.4545 C   0  0  0  0  0  3  0  0  0  0  0  0
   19.6056   -7.9909   -6.9033 C   0  0  2  0  0  0  0  0  0  0  0  0
   18.6314   -8.8226   -7.4507 O   0  0  0  0  0  0  0  0  0  0  0  0
   20.9004   -8.2773   -7.6334 C   0  0  0  0  0  0  0  0  0  0  0  0
   20.8522   -9.7299   -8.0755 C   0  0  0  0  0  0  0  0  0  0  0  0
   18.7405   -1.8773   -3.2243 C   0  0  1  0  0  0  0  0  0  0  0  0
   18.7030   -1.8928   -1.8862 O   0  0  0  0  0  0  0  0  0  0  0  0
   19.5545   -0.5801   -4.0634 S   0  0  0  0  0  0  0  0  0  0  0  0
   20.9245   -1.2745   -5.0366 C   0  0  0  0  0  0  0  0  0  0  0  0
   20.3416   -1.7609   -6.3387 C   0  0  0  0  0  0  0  0  0  0  0  0
   19.8696   -3.1778   -6.2920 C   0  0  0  0  0  3  0  0  0  0  0  0
   18.4270   -3.3274   -6.6813 C   0  0  0  0  0  0  0  0  0  0  0  0
   17.9618   -5.0447   -6.8680 S   0  0  0  0  0  0  0  0  0  0  0  0
  1  2  1  0
  2  3  1  1
  2  4  1  0
  4  5  1  0
  5  6  1  0
  6  7  1  0
  7  8  1  1
  7  9  1  0
  9 10  1  0
 10 11  1  0
 12 11  1  1
 12 13  1  0
 13 14  1  0
 14 15  1  6
 15 16  1  0
 16 17  1  1
 16 18  1  0
 18 19  1  0
 19 20  1  0
 20 21  1  6
 20 22  1  0
 22 23  1  0
 12 24  1  0
 24 25  1  1
 24 26  1  0
 26 27  1  0
 27 28  1  0
 28 29  1  0
 29 30  1  0
 30 31  1  0
 31  1  1  0
 29 14  1  0
M  RAD  3   9   2  19   2  29   2
M  END
>  <docking_score>  (1) 
-3.9860000000000002

$$$$

     RDKit          3D

 31 32  0  0  0  0  0  0  0  0999 V2000
    4.1144    9.6018    6.1534 C   0  0  0  0  0  0  0  0  0  0  0  0
    5.4278    8.9464    5.7932 C   0  0  1  0  0  0  0  0  0  0  0  0
    5.1452    7.9902    4.6464 C   0  0  0  0  0  0  0  0  0  0  0  0
    6.4156    9.9862    5.2558 C   0  0  0  0  0  0  0  0  0  0  0  0
    5.5823   11.0236    4.5231 C   0  0  0  0  0  0  0  0  0  0  0  0
    6.0347   11.2175    3.1050 C   0  0  0  0  0  0  0  0  0  0  0  0
    6.0739   12.7199    2.8393 C   0  0  1  0  0  0  0  0  0  0  0  0
    5.8707   12.9241    1.3695 C   0  0  0  0  0  0  0  0  0  0  0  0
    5.0153   13.4378    3.6727 C   0  0  0  0  0  3  0  0  0  0  0  0
    3.6857   12.7655    3.5299 C   0  0  0  0  0  0  0  0  0  0  0  0
    2.9347   12.6130    4.8085 C   0  0  0  0  0  0  0  0  0  0  0  0
    3.4303   13.4775    5.9259 C   0  0  2  0  0  0  0  0  0  0  0  0
    2.5674   13.2381    7.1337 C   0  0  0  0  0  0  0  0  0  0  0  0
    3.2659   13.4005    8.4309 C   0  0  1  0  0  0  0  0  0  0  0  0
    2.5781   12.5283    9.4596 C   0  0  0  0  0  0  0  0  0  0  0  0
    2.3810   13.2377   10.7730 C   0  0  2  0  0  0  0  0  0  0  0  0
    2.2577   14.7322   10.6065 C   0  0  0  0  0  0  0  0  0  0  0  0
    3.4293   12.8620   11.7916 C   0  0  0  0  0  0  0  0  0  0  0  0
    3.9701   11.4991   11.4192 C   0  0  0  0  0  3  0  0  0  0  0  0
    4.2373   10.6345   12.6307 C   0  0  2  0  0  0  0  0  0  0  0  0
    3.7105    9.3652   12.4030 O   0  0  0  0  0  0  0  0  0  0  0  0
    3.4711   11.2360   13.7894 C   0  0  0  0  0  0  0  0  0  0  0  0
    4.1661   10.7897   15.0643 C   0  0  0  0  0  0  0  0  0  0  0  0
    3.5371   14.9025    5.6443 C   0  0  1  0  0  0  0  0  0  0  0  0
    2.5591   15.5348    4.9840 O   0  0  0  0  0  0  0  0  0  0  0  0
    4.8719   15.8090    6.3124 S   0  0  0  0  0  0  0  0  0  0  0  0
    4.8867   15.5938    8.1179 C   0  0  0  0  0  0  0  0  0  0  0  0
    5.6102   14.3030    8.4048 C   0  0  0  0  0  0  0  0  0  0  0  0
    4.7147   13.1072    8.4312 C   0  0  0  0  0  3  0  0  0  0  0  0
    5.1432   12.0337    7.4726 C   0  0  0  0  0  0  0  0  0  0  0  0
    4.2169   10.5214    7.7080 S   0  0  0  0  0  0  0  0  0  0  0  0
  1  2  1  0
  2  3  1  6
  2  4  1  0
  4  5  1  0
  5  6  1  0
  6  7  1  0
  7  8  1  6
  7  9  1  0
  9 10  1  0
 10 11  1  0
 12 11  1  6
 12 13  1  0
 13 14  1  0
 14 15  1  1
 15 16  1  0
 16 17  1  6
 16 18  1  0
 18 19  1  0
 19 20  1  0
 20 21  1  6
 20 22  1  0
 22 23  1  0
 12 24  1  0
 24 25  1  1
 24 26  1  0
 26 27  1  0
 27 28  1  0
 28 29  1  0
 29 30  1  0
 30 31  1  0
 31  1  1  0
 29 14  1  0
M  RAD  3   9   2  19   2  29   2
M  END
>  <docking_score>  (2) 
-3.9630000000000001

$$$$

     RDKit          3D

 31 32  0  0  0  0  0  0  0  0999 V2000
   15.3783   -1.7306   -6.1896 C   0  0  0  0  0  0  0  0  0  0  0  0
   14.4155   -2.3316   -5.1915 C   0  0  1  0  0  0  0  0  0  0  0  0
   13.3286   -3.0306   -5.9912 C   0  0  0  0  0  0  0  0  0  0  0  0
   15.1099   -3.4177   -4.3646 C   0  0  0  0  0  0  0  0  0  0  0  0
   16.1281   -4.0665   -5.2864 C   0  0  0  0  0  0  0  0  0  0  0  0
   15.9445   -5.5534   -5.3792 C   0  0  0  0  0  0  0  0  0  0  0  0
   17.3263   -6.1921   -5.2699 C   0  0  1  0  0  0  0  0  0  0  0  0
   17.2737   -7.5076   -5.9840 C   0  0  0  0  0  0  0  0  0  0  0  0
   18.3913   -5.2642   -5.8490 C   0  0  0  0  0  3  0  0  0  0  0  0
   17.9841   -4.7734   -7.2031 C   0  0  0  0  0  0  0  0  0  0  0  0
   18.2398   -3.3228   -7.4325 C   0  0  0  0  0  0  0  0  0  0  0  0
   19.1903   -2.6989   -6.4585 C   0  0  2  0  0  0  0  0  0  0  0  0
   19.3711   -1.2524   -6.8273 C   0  0  0  0  0  0  0  0  0  0  0  0
   19.6424   -0.3542   -5.6801 C   0  0  1  0  0  0  0  0  0  0  0  0
   19.1455    1.0330   -6.0277 C   0  0  0  0  0  0  0  0  0  0  0  0
   20.1940    2.0903   -5.8044 C   0  0  2  0  0  0  0  0  0  0  0  0
   21.3786    1.5705   -5.0278 C   0  0  0  0  0  0  0  0  0  0  0  0
   19.6215    3.3476   -5.1972 C   0  0  0  0  0  0  0  0  0  0  0  0
   19.3066    4.3055   -6.3251 C   0  0  0  0  0  3  0  0  0  0  0  0
   18.8737    5.6645   -5.8230 C   0  0  2  0  0  0  0  0  0  0  0  0
   19.4324    6.6451   -6.6396 O   0  0  0  0  0  0  0  0  0  0  0  0
   19.4655    5.8421   -4.4411 C   0  0  0  0  0  0  0  0  0  0  0  0
   20.6842    6.7370   -4.5887 C   0  0  0  0  0  0  0  0  0  0  0  0
   20.4812   -3.3549   -6.3018 C   0  0  1  0  0  0  0  0  0  0  0  0
   21.1537   -3.7856   -7.3762 O   0  0  0  0  0  0  0  0  0  0  0  0
   21.2156   -3.4316   -4.7192 S   0  0  0  0  0  0  0  0  0  0  0  0
   21.3615   -1.7456   -4.0539 C   0  0  0  0  0  0  0  0  0  0  0  0
   20.0343   -1.3989   -3.4293 C   0  0  0  0  0  0  0  0  0  0  0  0
   19.0710   -0.7669   -4.3807 C   0  0  0  0  0  3  0  0  0  0  0  0
   17.7662   -1.5049   -4.4692 C   0  0  0  0  0  0  0  0  0  0  0  0
   16.5465   -0.5922   -5.4071 S   0  0  0  0  0  0  0  0  0  0  0  0
  1  2  1  0
  2  3  1  6
  2  4  1  0
  4  5  1  0
  5  6  1  0
  6  7  1  0
  7  8  1  6
  7  9  1  0
  9 10  1  0
 10 11  1  0
 12 11  1  6
 12 13  1  0
 13 14  1  0
 14 15  1  6
 15 16  1  0
 16 17  1  1
 16 18  1  0
 18 19  1  0
 19 20  1  0
 20 21  1  6
 20 22  1  0
 22 23  1  0
 12 24  1  0
 24 25  1  6
 24 26  1  0
 26 27  1  0
 27 28  1  0
 28 29  1  0
 29 30  1  0
 30 31  1  0
 31  1  1  0
 29 14  1  0
M  RAD  3   9   2  19   2  29   2
M  END
>  <docking_score>  (3) 
-2.4300000000000002

$$$$
