
     RDKit          3D

 58 67  0  0  0  0  0  0  0  0999 V2000
   20.2276   -3.3373   -2.7180 C   0  0  0  0  0  0  0  0  0  0  0  0
   19.1153   -2.4467   -2.2016 C   0  0  2  0  0  0  0  0  0  0  0  0
   19.7537   -1.0715   -1.9731 C   0  0  0  0  0  0  0  0  0  0  0  0
   20.9657   -1.2591   -1.1137 C   0  0  0  0  0  0  0  0  0  0  0  0
   20.7211   -2.1581    0.0433 C   0  0  0  0  0  0  0  0  0  0  0  0
   21.3627   -1.9759    1.0565 O   0  0  0  0  0  0  0  0  0  0  0  0
   19.7298   -3.2666    0.0158 C   0  0  0  0  0  0  0  0  0  0  0  0
   18.5694   -2.8986   -0.8841 C   0  0  2  0  0  0  0  0  0  0  0  0
   17.6519   -4.0773   -0.9701 C   0  0  0  0  0  0  0  0  0  0  0  0
   16.5874   -3.8848   -2.0502 C   0  0  0  0  0  0  0  0  0  0  0  0
   17.3205   -3.6568   -3.3532 C   0  0  0  0  0  3  0  0  0  0  0  0
   18.0374   -2.3277   -3.2602 C   0  0  1  0  0  0  0  0  0  0  0  0
   17.0849   -1.1918   -2.9360 C   0  0  0  0  0  0  0  0  0  0  0  0
   15.6841   -1.7105   -2.9924 C   0  0  0  0  0  0  0  0  0  0  0  0
   15.1185   -1.6682   -4.3897 C   0  0  1  0  0  0  0  0  0  0  0  0
   14.0087   -0.6873   -4.5642 C   0  0  1  0  0  0  0  0  0  0  0  0
   13.1105   -0.5750   -3.3522 C   0  0  0  0  0  2  0  0  0  0  0  0
   14.5219    0.9480   -5.0613 S   0  0  0  0  0  0  0  0  0  0  0  0
   15.8235    0.9790   -6.1421 O   0  0  0  0  0  0  0  0  0  0  0  0
   15.6839    0.1487   -7.2320 C   0  0  0  0  0  0  0  0  0  0  0  0
   15.5641   -1.3012   -6.7532 C   0  0  1  0  0  0  0  0  0  0  0  0
   16.2063   -1.3654   -5.4009 C   0  0  2  0  0  0  0  0  0  0  0  0
   17.0041   -2.6303   -5.4524 C   0  0  1  0  0  0  0  0  0  0  0  0
   16.0044   -3.7298   -5.1724 C   0  0  1  0  0  0  0  0  0  0  0  0
   14.7072   -3.0693   -4.8166 C   0  0  0  0  0  3  0  0  0  0  0  0
   13.7794   -2.9040   -6.0004 C   0  0  0  0  0  0  0  0  0  0  0  0
   14.1092   -1.6451   -6.7580 C   0  0  2  0  0  0  0  0  0  0  0  0
   13.6439   -1.7033   -8.1971 C   0  0  0  0  0  0  0  0  0  0  0  0
   12.7305   -0.4930   -8.4070 C   0  0  0  0  0  0  0  0  0  0  0  0
   17.4143   -2.7225   -6.7801 O   0  0  0  0  0  0  0  0  0  0  0  0
   16.4074   -2.2321   -7.5715 C   0  0  1  0  0  0  0  0  0  0  0  0
   15.6315   -3.2697   -8.3030 C   0  0  0  0  0  0  0  0  0  0  0  0
   15.0458   -4.3307   -7.4206 C   0  0  0  0  0  3  0  0  0  0  0  0
   15.9200   -4.7190   -6.2793 C   0  0  2  0  0  0  0  0  0  0  0  0
   15.4909   -5.9456   -5.7779 O   0  0  0  0  0  0  0  0  0  0  0  0
   15.7769   -6.0843   -4.1014 S   0  0  0  0  0  0  0  0  0  0  0  0
   17.4430   -6.5189   -3.6673 C   0  0  0  0  0  0  0  0  0  0  0  0
   18.4721   -6.2797   -4.6967 C   0  0  0  0  0  0  0  0  0  0  0  0
   19.8740   -6.1408   -4.2773 C   0  0  1  0  0  0  0  0  0  0  0  0
   20.0544   -6.3886   -2.9490 O   0  0  0  0  0  0  0  0  0  0  0  0
   21.2065   -7.1065   -2.7511 C   0  0  0  0  0  3  0  0  0  0  0  0
   21.3824   -7.9103   -4.0412 C   0  0  0  0  0  0  0  0  0  0  0  0
   20.8621   -6.9297   -5.0587 C   0  0  1  0  0  0  0  0  0  0  0  0
   20.3475   -7.5241   -6.1961 O   0  0  0  0  0  0  0  0  0  0  0  0
   19.0028   -7.3577   -6.3706 C   0  0  2  0  0  0  0  0  0  0  0  0
   18.1232   -7.9167   -5.3112 C   0  0  0  0  0  0  0  0  0  0  0  0
   18.3780   -9.3442   -4.9575 C   0  0  0  0  0  0  0  0  0  0  0  0
   17.8550  -10.3100   -6.0320 C   0  0  2  0  0  0  0  0  0  0  0  0
   18.8725  -10.2219   -7.1454 C   0  0  0  0  0  0  0  0  0  0  0  0
   19.1355   -9.1851   -7.9405 C   0  0  0  0  0  0  0  0  0  0  0  0
   18.6310   -7.7719   -7.7754 C   0  0  2  0  0  0  0  0  0  0  0  0
   19.1528   -6.9506   -8.7367 O   0  0  0  0  0  0  0  0  0  0  0  0
   20.1298   -6.1351   -8.2206 C   0  0  0  0  0  0  0  0  0  0  0  0
   19.8162   -4.7108   -8.5653 C   0  0  0  0  0  0  0  0  0  0  0  0
   19.5739   -3.8889   -7.3089 C   0  0  0  0  0  0  0  0  0  0  0  0
   17.2386   -7.8573   -7.8147 O   0  0  0  0  0  0  0  0  0  0  0  0
   16.7883   -9.0736   -7.8193 O   0  0  0  0  0  0  0  0  0  0  0  0
   16.5924   -9.6324   -6.5807 C   0  0  0  0  0  3  0  0  0  0  0  0
  2  1  1  6
  2  3  1  0
  3  4  1  0
  4  5  1  0
  5  6  2  0
  5  7  1  0
  8  7  1  1
  8  9  1  0
  9 10  1  0
 10 11  1  0
 11 12  1  0
 12 13  1  1
 13 14  1  0
 15 14  1  1
 15 16  1  0
 16 17  1  1
 16 18  1  0
 18 19  1  0
 19 20  1  0
 21 20  1  6
 21 22  1  0
 22 23  1  6
 23 24  1  0
 24 25  1  6
 25 26  1  0
 26 27  1  0
 27 28  1  6
 28 29  1  0
 23 30  1  6
 30 31  1  0
 31 32  1  1
 32 33  1  0
 33 34  1  0
 34 35  1  1
 35 36  1  0
 36 37  1  0
 37 38  1  0
 39 38  1  6
 39 40  1  0
 40 41  1  0
 41 42  1  0
 42 43  1  0
 43 44  1  6
 45 44  1  1
 45 46  1  0
 46 47  1  0
 48 47  1  1
 48 49  1  0
 49 50  2  0
 50 51  1  0
 51 52  1  6
 52 53  1  0
 53 54  1  0
 54 55  1  0
 51 56  1  0
 56 57  1  0
 57 58  1  0
  8  2  1  0
 12  2  1  0
 22 15  1  0
 25 15  1  0
 27 21  1  0
 31 21  1  0
 34 24  1  0
 43 39  1  0
 51 45  1  0
 58 48  1  0
M  RAD  6  11   2  17   3  25   2  33   2  41   2  58   2
M  END
>  <docking_score>  (1) 
14.462999999999999

$$$$

     RDKit          3D

 58 67  0  0  0  0  0  0  0  0999 V2000
   21.2151   -1.7238   -2.0955 C   0  0  0  0  0  0  0  0  0  0  0  0
   19.9617   -2.3591   -2.6632 C   0  0  2  0  0  0  0  0  0  0  0  0
   19.2196   -2.9621   -1.4646 C   0  0  0  0  0  0  0  0  0  0  0  0
   20.1785   -3.8360   -0.7165 C   0  0  0  0  0  0  0  0  0  0  0  0
   20.9745   -4.7178   -1.6085 C   0  0  0  0  0  0  0  0  0  0  0  0
   21.3434   -5.7890   -1.1751 O   0  0  0  0  0  0  0  0  0  0  0  0
   21.3379   -4.3484   -3.0027 C   0  0  0  0  0  0  0  0  0  0  0  0
   20.2525   -3.4830   -3.6067 C   0  0  2  0  0  0  0  0  0  0  0  0
   20.7043   -3.0453   -4.9642 C   0  0  0  0  0  0  0  0  0  0  0  0
   19.7855   -1.9700   -5.5440 C   0  0  0  0  0  0  0  0  0  0  0  0
   19.7831   -0.8191   -4.5627 C   0  0  0  0  0  3  0  0  0  0  0  0
   19.0994   -1.2856   -3.2963 C   0  0  1  0  0  0  0  0  0  0  0  0
   17.7001   -1.8066   -3.5669 C   0  0  0  0  0  0  0  0  0  0  0  0
   16.7769   -0.6411   -3.7226 C   0  0  0  0  0  0  0  0  0  0  0  0
   15.5448   -0.9946   -4.5170 C   0  0  1  0  0  0  0  0  0  0  0  0
   14.2728   -0.8721   -3.7481 C   0  0  1  0  0  0  0  0  0  0  0  0
   14.4087   -1.2709   -2.2952 C   0  0  0  0  0  2  0  0  0  0  0  0
   13.4892    0.7286   -3.8410 S   0  0  0  0  0  0  0  0  0  0  0  0
   13.6144    1.4870   -5.3483 O   0  0  0  0  0  0  0  0  0  0  0  0
   13.2599    0.6968   -6.4193 C   0  0  0  0  0  0  0  0  0  0  0  0
   14.1858   -0.5219   -6.4789 C   0  0  1  0  0  0  0  0  0  0  0  0
   15.4482   -0.1422   -5.7667 C   0  0  2  0  0  0  0  0  0  0  0  0
   16.5258   -0.6865   -6.6509 C   0  0  1  0  0  0  0  0  0  0  0  0
   16.6137   -2.1536   -6.2952 C   0  0  1  0  0  0  0  0  0  0  0  0
   15.7082   -2.3805   -5.1229 C   0  0  0  0  0  3  0  0  0  0  0  0
   14.3235   -2.8424   -5.5213 C   0  0  0  0  0  0  0  0  0  0  0  0
   13.4488   -1.6627   -5.8543 C   0  0  2  0  0  0  0  0  0  0  0  0
   12.3019   -2.0388   -6.7676 C   0  0  0  0  0  0  0  0  0  0  0  0
   11.2891   -0.8939   -6.6864 C   0  0  0  0  0  0  0  0  0  0  0  0
   16.0064   -0.5657   -7.9375 O   0  0  0  0  0  0  0  0  0  0  0  0
   14.6565   -0.7989   -7.8751 C   0  0  1  0  0  0  0  0  0  0  0  0
   14.2296   -2.1206   -8.4086 C   0  0  0  0  0  0  0  0  0  0  0  0
   14.9264   -3.2887   -7.7782 C   0  0  0  0  0  3  0  0  0  0  0  0
   16.3602   -3.0393   -7.4623 C   0  0  2  0  0  0  0  0  0  0  0  0
   16.9998   -4.2614   -7.2689 O   0  0  0  0  0  0  0  0  0  0  0  0
   15.9440   -5.5794   -7.5136 S   0  0  0  0  0  0  0  0  0  0  0  0
   16.1154   -6.8953   -6.3337 C   0  0  0  0  0  0  0  0  0  0  0  0
   15.4616   -6.6931   -5.0269 C   0  0  0  0  0  0  0  0  0  0  0  0
   15.2782   -7.8512   -4.1406 C   0  0  1  0  0  0  0  0  0  0  0  0
   14.0044   -7.9563   -3.6664 O   0  0  0  0  0  0  0  0  0  0  0  0
   13.6056   -9.2688   -3.6605 C   0  0  0  0  0  3  0  0  0  0  0  0
   14.3993   -9.9146   -4.7982 C   0  0  0  0  0  0  0  0  0  0  0  0
   15.7004   -9.1630   -4.6976 C   0  0  1  0  0  0  0  0  0  0  0  0
   16.3923   -9.0805   -5.8918 O   0  0  0  0  0  0  0  0  0  0  0  0
   17.7060   -9.4485   -5.8190 C   0  0  2  0  0  0  0  0  0  0  0  0
   18.6981   -8.3463   -5.7219 C   0  0  0  0  0  0  0  0  0  0  0  0
   18.5663   -7.2761   -6.7540 C   0  0  0  0  0  0  0  0  0  0  0  0
   19.0703   -7.7339   -8.1314 C   0  0  2  0  0  0  0  0  0  0  0  0
   17.9683   -8.6223   -8.6598 C   0  0  0  0  0  0  0  0  0  0  0  0
   17.5777   -9.8110   -8.2010 C   0  0  0  0  0  0  0  0  0  0  0  0
   17.9979  -10.4590   -6.9038 C   0  0  2  0  0  0  0  0  0  0  0  0
   17.3517  -11.6505   -6.7201 O   0  0  0  0  0  0  0  0  0  0  0  0
   18.0454  -12.6885   -7.2922 C   0  0  0  0  0  0  0  0  0  0  0  0
   17.1921  -13.9202   -7.2758 C   0  0  0  0  0  0  0  0  0  0  0  0
   16.5626  -14.1628   -8.6388 C   0  0  0  0  0  0  0  0  0  0  0  0
   19.3859  -10.5856   -6.9732 O   0  0  0  0  0  0  0  0  0  0  0  0
   19.9147   -9.9991   -8.0020 O   0  0  0  0  0  0  0  0  0  0  0  0
   20.2401   -8.6775   -7.8222 C   0  0  0  0  0  3  0  0  0  0  0  0
  2  1  1  1
  2  3  1  0
  3  4  1  0
  4  5  1  0
  5  6  2  0
  5  7  1  0
  8  7  1  1
  8  9  1  0
  9 10  1  0
 10 11  1  0
 11 12  1  0
 12 13  1  6
 13 14  1  0
 15 14  1  1
 15 16  1  0
 16 17  1  1
 16 18  1  0
 18 19  1  0
 19 20  1  0
 21 20  1  6
 21 22  1  0
 22 23  1  6
 23 24  1  0
 24 25  1  1
 25 26  1  0
 26 27  1  0
 27 28  1  6
 28 29  1  0
 23 30  1  6
 30 31  1  0
 31 32  1  1
 32 33  1  0
 33 34  1  0
 34 35  1  1
 35 36  1  0
 36 37  1  0
 37 38  1  0
 39 38  1  6
 39 40  1  0
 40 41  1  0
 41 42  1  0
 42 43  1  0
 43 44  1  6
 45 44  1  6
 45 46  1  0
 46 47  1  0
 48 47  1  1
 48 49  1  0
 49 50  2  0
 50 51  1  0
 51 52  1  1
 52 53  1  0
 53 54  1  0
 54 55  1  0
 51 56  1  0
 56 57  1  0
 57 58  1  0
  8  2  1  0
 12  2  1  0
 22 15  1  0
 25 15  1  0
 27 21  1  0
 31 21  1  0
 34 24  1  0
 43 39  1  0
 51 45  1  0
 58 48  1  0
M  RAD  6  11   2  17   3  25   2  33   2  41   2  58   2
M  END
>  <docking_score>  (2) 
15.994999999999999

$$$$
