
     RDKit          3D

 74 81  0  0  0  0  0  0  0  0999 V2000
   18.7286   -0.4514   -5.4071 C   0  0  0  0  0  0  0  0  0  0  0  0
   17.6205    0.0385   -6.3123 C   0  0  1  0  0  0  0  0  0  0  0  0
   16.4793   -0.9530   -6.2461 C   0  0  0  0  0  0  0  0  0  0  0  0
   17.0685    1.3742   -5.8642 C   0  0  0  0  0  0  0  0  0  0  0  0
   16.2959    1.2558   -4.5704 C   0  0  0  0  0  0  0  0  0  0  0  0
   16.7841    0.1465   -3.7021 C   0  0  0  0  0  0  0  0  0  0  0  0
   15.7375   -0.9138   -3.4523 C   0  0  1  0  0  0  0  0  0  0  0  0
   16.1424   -1.8953   -2.4044 C   0  0  0  0  0  0  0  0  0  0  0  0
   14.3616   -0.3363   -3.2326 C   0  0  0  0  0  3  0  0  0  0  0  0
   14.0177    0.5321   -4.4232 C   0  0  0  0  0  0  0  0  0  0  0  0
   13.0132   -0.1246   -5.3383 C   0  0  0  0  0  0  0  0  0  0  0  0
   13.4810   -0.0438   -6.7824 C   0  0  0  0  0  0  0  0  0  0  0  0
   13.5002   -1.4037   -7.4394 C   0  0  0  0  0  3  0  0  0  0  0  0
   14.3509   -2.3986   -6.7091 C   0  0  2  0  0  0  0  0  0  0  0  0
   15.5665   -2.8163   -7.5070 C   0  0  0  0  0  0  0  0  0  0  0  0
   16.8451   -2.2232   -6.9779 C   0  0  2  0  0  0  0  0  0  0  0  0
   17.5721   -3.1240   -6.0375 C   0  0  0  0  0  0  0  0  0  0  0  0
   17.7378   -4.5018   -6.5660 C   0  0  0  0  0  0  0  0  0  0  0  0
   18.6621   -5.3381   -6.1313 C   0  0  0  0  0  0  0  0  0  0  0  0
   18.8311   -6.6284   -6.6136 O   0  0  0  0  0  0  0  0  0  0  0  0
   19.5818   -4.8860   -5.0648 C   0  0  1  0  0  0  0  0  0  0  0  0
   21.0285   -5.2577   -5.2655 C   0  0  0  0  0  0  0  0  0  0  0  0
   19.4695   -3.5644   -4.6945 O   0  0  0  0  0  0  0  0  0  0  0  0
   19.7951   -3.9600   -3.3787 C   0  0  0  0  0  0  0  0  0  0  0  0
   19.1192   -5.2912   -3.6837 C   0  0  1  0  0  0  0  0  0  0  0  0
   17.6356   -5.1698   -3.5077 C   0  0  0  0  0  0  0  0  0  0  0  0
   17.3477   -4.0886   -2.4828 C   0  0  0  0  0  0  0  0  0  0  0  0
   16.1174   -3.3153   -2.9185 C   0  0  1  0  0  0  0  0  0  0  0  0
   14.9474   -3.9835   -2.6191 O   0  0  0  0  0  0  0  0  0  0  0  0
   14.9562   -5.1710   -3.3764 C   0  0  0  0  0  0  0  0  0  0  0  0
   14.0088   -5.1004   -4.3885 O   0  0  0  0  0  0  0  0  0  0  0  0
   14.4929   -4.5682   -5.5582 C   0  0  0  0  0  0  0  0  0  0  0  0
   13.5761   -3.5762   -6.1964 C   0  0  1  0  0  0  0  0  0  0  0  0
   12.6813   -3.1225   -5.1709 O   0  0  0  0  0  0  0  0  0  0  0  0
   12.5666   -1.7655   -4.9753 C   0  0  0  0  0  0  0  0  0  0  0  0
   11.4838   -1.1180   -4.6287 C   0  0  0  0  0  3  0  0  0  0  0  0
   10.2309   -1.8581   -4.4111 C   0  0  1  0  0  0  0  0  0  0  0  0
    9.5323   -1.3128   -3.2081 C   0  0  0  0  0  0  0  0  0  0  0  0
    8.2108   -0.7714   -3.6629 C   0  0  0  0  0  0  0  0  0  0  0  0
    7.9349   -1.3586   -5.0331 C   0  0  2  0  0  0  0  0  0  0  0  0
    9.2794   -1.7570   -5.5696 C   0  0  1  0  0  0  0  0  0  0  0  0
    9.3337   -0.4481   -6.3242 C   0  0  2  0  0  0  0  0  0  0  0  0
   10.0596    0.6169   -5.5474 C   0  0  0  0  0  0  0  0  0  0  0  0
    7.8186   -0.3396   -6.1330 C   0  0  2  0  0  0  0  0  0  0  0  0
    7.4025    0.9977   -5.5328 C   0  0  0  0  0  0  0  0  0  0  0  0
    6.0834    0.7890   -4.8289 C   0  0  0  0  0  0  0  0  0  0  0  0
    5.0426    0.2948   -5.8215 C   0  0  1  0  0  0  0  0  0  0  0  0
    5.2088    1.0678   -7.1111 C   0  0  0  0  0  0  0  0  0  0  0  0
    5.2442   -1.1832   -6.1184 C   0  0  0  0  0  3  0  0  0  0  0  0
    5.6304   -1.8577   -4.9574 O   0  0  0  0  0  0  0  0  0  0  0  0
    6.8824   -2.4178   -5.0675 C   0  0  0  0  0  3  0  0  0  0  0  0
    6.9706   -3.2188   -6.1796 O   0  0  0  0  0  0  0  0  0  0  0  0
    5.8720   -3.1741   -7.0182 C   0  0  0  0  0  0  0  0  0  0  0  0
    6.2286   -3.7412   -8.3747 C   0  0  0  0  0  0  0  0  0  0  0  0
    5.6112   -5.1083   -8.5809 C   0  0  0  0  0  0  0  0  0  0  0  0
    5.5296   -5.7887   -7.3626 O   0  0  0  0  0  0  0  0  0  0  0  0
    5.5946   -7.1462   -7.6308 C   0  0  0  0  0  0  0  0  0  0  0  0
    4.3005   -7.7515   -7.5859 N   0  0  0  0  0  0  0  0  0  0  0  0
    4.2960   -9.1605   -7.7838 C   0  0  1  0  0  0  0  0  0  0  0  0
    5.4877   -9.7117   -8.5238 C   0  0  0  0  0  0  0  0  0  0  0  0
    5.4329  -10.9040   -7.5576 C   0  0  2  0  0  0  0  0  0  0  0  0
    4.5339  -11.9604   -8.1609 C   0  0  0  0  0  0  0  0  0  0  0  0
    4.6789   -9.9899   -6.5936 C   0  0  1  0  0  0  0  0  0  0  0  0
    5.6248   -9.3179   -5.6886 C   0  0  0  0  0  0  0  0  0  0  0  0
    6.0066   -9.8670   -4.5352 C   0  0  0  0  0  0  0  0  0  0  0  0
    5.4746  -11.2068   -4.1206 C   0  0  0  0  0  3  0  0  0  0  0  0
    6.2802  -11.6425   -2.9019 C   0  0  0  0  0  0  0  0  0  0  0  0
    7.7426  -11.4958   -3.2854 C   0  0  0  0  0  0  0  0  0  0  0  0
    8.2294  -12.7337   -4.0308 C   0  0  1  0  0  0  0  0  0  0  0  0
    8.3126  -12.3405   -5.5008 C   0  0  0  0  0  0  0  0  0  0  0  0
    9.6175  -13.1000   -3.5878 C   0  0  0  0  0  3  0  0  0  0  0  0
    9.6261  -13.9163   -2.3303 C   0  0  0  0  0  0  0  0  0  0  0  0
    8.2329  -14.2044   -1.8585 C   0  0  0  0  0  0  0  0  0  0  0  0
   10.4167  -15.1876   -2.5570 C   0  0  0  0  0  0  0  0  0  0  0  0
  2  1  1  1
  2  3  1  0
  2  4  1  0
  4  5  1  0
  5  6  1  0
  7  6  1  1
  7  8  1  0
  7  9  1  0
  9 10  1  0
 10 11  1  0
 11 12  1  0
 12 13  1  0
 14 13  1  6
 14 15  1  0
 16 15  1  1
 16 17  1  0
 17 18  1  0
 18 19  2  3
 19 20  1  0
 19 21  1  0
 21 22  1  6
 21 23  1  0
 23 24  1  0
 25 24  1  1
 25 26  1  0
 26 27  1  0
 28 27  1  1
 28 29  1  0
 29 30  1  0
 30 31  1  0
 31 32  1  0
 32 33  1  0
 33 34  1  1
 34 35  1  0
 35 36  2  3
 36 37  1  0
 37 38  1  1
 38 39  1  0
 40 39  1  1
 40 41  1  0
 41 42  1  0
 42 43  1  1
 42 44  1  0
 44 45  1  1
 45 46  1  0
 46 47  1  0
 47 48  1  6
 47 49  1  0
 49 50  1  0
 50 51  1  0
 51 52  1  0
 52 53  1  0
 53 54  1  0
 54 55  1  0
 55 56  1  0
 56 57  1  0
 57 58  1  0
 59 58  1  1
 59 60  1  0
 60 61  1  0
 61 62  1  6
 61 63  1  0
 63 64  1  1
 64 65  2  3
 65 66  1  0
 66 67  1  0
 67 68  1  0
 68 69  1  0
 69 70  1  6
 69 71  1  0
 71 72  1  0
 72 73  1  0
 72 74  1  0
 16  3  1  0
 28  8  1  0
 33 14  1  0
 25 21  1  0
 41 37  1  1
 44 40  1  0
 51 40  1  0
 63 59  1  0
M  RAD  7   9   2  13   2  36   2  49   2  51   2  66   2  71   2
M  END
>  <docking_score>  (1) 
56.759999999999998

$$$$
