
     RDKit          3D

 68 77  0  0  0  0  0  0  0  0999 V2000
   10.3499   12.4654   12.8494 C   0  0  2  0  0  0  0  0  0  0  0  0
    9.6237   12.1540   11.6153 C   0  0  2  0  0  0  0  0  0  0  0  0
   10.4683   11.1726   10.7903 C   0  0  0  0  0  0  0  0  0  0  0  0
    9.1318   13.3014   10.8154 C   0  0  0  0  0  0  0  0  0  0  0  0
    7.7905   13.8295   11.2790 C   0  0  2  0  0  0  0  0  0  0  0  0
    7.0617   14.5626   10.1461 C   0  0  2  0  0  0  0  0  0  0  0  0
    5.6601   13.9389   10.1063 C   0  0  1  0  0  0  0  0  0  0  0  0
    4.7617   14.8978    9.3299 C   0  0  0  0  0  0  0  0  0  0  0  0
    5.7288   12.6539    9.2823 C   0  0  0  0  0  3  0  0  0  0  0  0
    4.7448   11.6300    9.7422 C   0  0  0  0  0  0  0  0  0  0  0  0
    3.5663   12.2156   10.4864 C   0  0  1  0  0  0  0  0  0  0  0  0
    2.3243   12.0708    9.6928 C   0  0  0  0  0  0  0  0  0  0  0  0
    2.2588   12.0726    8.3807 C   0  0  0  0  0  3  0  0  0  0  0  0
    3.4672   12.2257    7.5360 C   0  0  0  0  0  0  0  0  0  0  0  0
    3.2533   11.7009    6.1488 C   0  0  1  0  0  0  0  0  0  0  0  0
    2.9530   12.7206    5.1811 N   0  0  0  0  0  1  0  0  0  0  0  0
    4.2847   10.7172    5.6999 C   0  0  0  0  0  0  0  0  0  0  0  0
    5.6858   11.2801    5.6763 C   0  0  0  0  0  0  0  0  0  0  0  0
    6.6412   10.1337    5.4260 C   0  0  1  0  0  0  0  0  0  0  0  0
    6.0873    9.2003    4.3693 C   0  0  0  0  0  0  0  0  0  0  0  0
    8.0275   10.6237    5.0616 C   0  0  1  0  0  0  0  0  0  0  0  0
    7.9481   11.2881    3.7272 C   0  0  0  0  0  0  0  0  0  0  0  0
    6.9238   12.3690    3.6292 C   0  0  0  0  0  0  0  0  0  0  0  0
    7.3061   13.2446    2.4288 C   0  0  0  0  0  0  0  0  0  0  0  0
    7.8750   14.4885    2.9796 C   0  0  0  0  0  0  0  0  0  0  0  0
    8.5346   14.4695    4.1358 C   0  0  0  0  0  0  0  0  0  0  0  0
    9.2509   15.9116    4.8734 S   0  0  0  0  0  0  0  0  0  0  0  0
    8.5820   16.0727    6.5594 C   0  0  0  0  0  0  0  0  0  0  0  0
    9.6689   15.7666    7.5353 C   0  0  1  0  0  0  0  0  0  0  0  0
    9.2999   14.8185    8.5903 C   0  0  0  0  0  0  0  0  0  0  0  0
    7.8808   14.0157    8.6123 S   0  0  0  0  0  0  0  0  0  0  0  0
    8.3260   11.9820    8.8926 S   0  0  0  0  0  0  0  0  0  0  0  0
    8.0291   10.9747    7.4668 C   0  0  2  0  0  0  0  0  0  0  0  0
   10.0997   10.3229    7.3673 S   0  0  2  0  0  0  0  0  0  0  0  0
   10.1945    9.7170    8.7589 C   0  0  0  0  0  0  0  0  0  0  0  0
    9.5827   10.2110   10.0256 C   0  0  1  0  0  0  0  0  0  0  0  0
    9.3192    9.0258   10.9304 C   0  0  0  0  0  0  0  0  0  0  0  0
    7.8402    8.7487   11.0760 C   0  0  0  0  0  0  0  0  0  0  0  0
    7.6295    7.9619   12.3343 C   0  0  2  0  0  0  0  0  0  0  0  0
    7.7196    6.4793   12.1250 C   0  0  0  0  0  0  0  0  0  0  0  0
    6.4341    8.3959   13.1180 C   0  0  0  0  0  0  0  0  0  0  0  0
    5.1814    7.6414   12.8023 C   0  0  2  0  0  0  0  0  0  0  0  0
    5.3597    6.5635   11.7762 C   0  0  0  0  0  0  0  0  0  0  0  0
    3.7895    8.7383   12.4396 S   0  0  0  0  0  0  0  0  0  0  0  0
    4.4467   10.3279   11.8839 C   0  0  0  0  0  0  0  0  0  0  0  0
    3.3678   11.3820   11.7555 C   0  0  1  0  0  0  0  0  0  0  0  0
    3.4098   12.2295   12.9913 C   0  0  0  0  0  0  0  0  0  0  0  0
    3.5024   13.6983   12.7224 C   0  0  0  0  0  0  0  0  0  0  0  0
    4.7050   14.3164   13.4019 C   0  0  0  0  0  3  0  0  0  0  0  0
    5.9493   13.4695   13.1891 C   0  0  0  0  0  0  0  0  0  0  0  0
    7.1558   14.2302   13.6680 C   0  0  0  0  0  0  0  0  0  0  0  0
    7.9398   14.7033   12.4841 C   0  0  1  0  0  0  0  0  0  0  0  0
    9.3837   14.7856   12.8490 C   0  0  0  0  0  3  0  0  0  0  0  0
    9.9004   13.6329   13.6361 C   0  0  0  0  0  3  0  0  0  0  0  0
   11.3816   13.8909   13.9626 C   0  0  0  0  0  0  0  0  0  0  0  0
   11.6741   13.2019   12.6210 C   0  0  2  0  0  0  0  0  0  0  0  0
   11.4264   14.1604   11.4758 C   0  0  0  0  0  0  0  0  0  0  0  0
   12.4934   15.1948   11.3281 C   0  0  0  0  0  0  0  0  0  0  0  0
   12.9113   15.2275    9.8726 C   0  0  1  0  0  0  0  0  0  0  0  0
   12.8117   13.8095    9.3501 C   0  0  0  0  0  0  0  0  0  0  0  0
   11.9179   16.0658    9.0648 C   0  0  0  0  0  0  0  0  0  0  0  0
   12.1668   15.9203    7.6010 C   0  0  0  0  0  0  0  0  0  0  0  0
   10.9584   15.3189    6.8744 C   0  0  1  0  0  0  0  0  0  0  0  0
   11.0602   13.8087    6.8382 C   0  0  0  0  0  0  0  0  0  0  0  0
   11.4173   13.2746    5.4867 C   0  0  0  0  0  0  0  0  0  0  0  0
   10.8110   11.8936    5.2771 C   0  0  0  0  0  0  0  0  0  0  0  0
    9.9456   11.5778    6.4467 C   0  0  1  0  0  0  0  0  0  0  0  0
    8.4861   11.5500    6.1682 C   0  0  1  0  0  0  0  0  0  0  0  0
  1  2  1  0
  2  3  1  6
  2  4  1  0
  5  4  1  6
  5  6  1  0
  6  7  1  6
  7  8  1  6
  7  9  1  0
  9 10  1  0
 10 11  1  0
 11 12  1  6
 12 13  2  3
 13 14  1  0
 14 15  1  0
 15 16  1  6
 15 17  1  0
 17 18  1  0
 18 19  1  0
 19 20  1  6
 19 21  1  0
 21 22  1  6
 22 23  1  0
 23 24  1  0
 24 25  1  0
 25 26  2  3
 26 27  1  0
 27 28  1  0
 29 28  1  6
 29 30  1  0
 30 31  2  3
 31 32  1  1
 33 32  1  1
 33 34  1  0
 34 35  1  1
 36 35  1  6
 36 37  1  0
 37 38  1  0
 38 39  1  0
 39 40  1  6
 39 41  1  0
 41 42  1  0
 42 43  1  6
 42 44  1  0
 44 45  1  0
 46 45  1  1
 46 47  1  0
 47 48  1  0
 48 49  1  0
 49 50  1  0
 50 51  1  0
 52 51  1  1
 52 53  1  0
 53 54  1  0
 54 55  1  0
 56 55  1  1
 56 57  1  0
 57 58  1  0
 58 59  1  0
 59 60  1  6
 59 61  1  0
 61 62  1  0
 63 62  1  1
 63 64  1  0
 64 65  1  0
 65 66  1  0
 67 66  1  6
 67 68  1  0
  1 54  1  1
 56  1  1  0
 36  3  1  0
 52  5  1  0
 31  6  1  0
 46 11  1  0
 68 21  1  6
 63 29  1  0
 68 33  1  0
 67 34  1  0
M  CHG  1  16   1
M  RAD  6   9   2  13   2  16   2  49   2  53   2  54   2
M  END
>  <docking_score>  (1) 
144.81999999999999

$$$$
