
     RDKit          3D

 23 22  0  0  0  0  0  0  0  0999 V2000
   15.1132   -1.1949   -3.3128 C   0  0  0  0  0  0  0  0  0  0  0  0
   14.4023   -1.0120   -4.6217 C   0  0  0  0  0  0  0  0  0  0  0  0
   13.1748   -0.1586   -4.5571 C   0  0  0  0  0  0  0  0  0  0  0  0
   15.3039   -0.7646   -5.7883 C   0  0  0  0  0  0  0  0  0  0  0  0
   16.5415   -1.6282   -5.6290 C   0  0  0  0  0  0  0  0  0  0  0  0
   17.0493   -1.9211   -7.0247 C   0  0  0  0  0  0  0  0  0  0  0  0
   18.5326   -2.2972   -7.0032 C   0  0  1  0  0  0  0  0  0  0  0  0
   19.0471   -2.1960   -8.4489 C   0  0  0  0  0  0  0  0  0  0  0  0
   19.2746   -1.2964   -6.1405 C   0  0  0  0  0  3  0  0  0  0  0  0
   20.3474   -2.0099   -5.3340 C   0  0  0  0  0  0  0  0  0  0  0  0
   19.7622   -3.3426   -4.8892 C   0  0  0  0  0  0  0  0  0  0  0  0
   20.5054   -3.9586   -3.7414 C   0  0  0  0  0  3  0  0  0  0  0  0
   19.6599   -3.8605   -2.5118 C   0  0  0  0  0  3  0  0  0  0  0  0
   20.2906   -3.1668   -1.3497 C   0  0  0  0  0  2  0  0  0  0  0  0
   18.2508   -3.5140   -2.7991 C   0  0  0  0  0  0  0  0  0  0  0  0
   17.1946   -4.3744   -2.2992 C   0  0  1  0  0  0  0  0  0  0  0  0
   16.3123   -3.9776   -1.3024 N   0  0  0  0  0  0  0  0  0  0  0  0
   16.8695   -5.5110   -3.1844 C   0  0  0  0  0  0  0  0  0  0  0  0
   15.9930   -5.0865   -4.3320 C   0  0  0  0  0  0  0  0  0  0  0  0
   16.6522   -5.3081   -5.6655 C   0  0  0  0  0  0  0  0  0  0  0  0
   16.9820   -6.7366   -5.9381 C   0  0  0  0  0  0  0  0  0  0  0  0
   18.4280   -6.8258   -6.2799 C   0  0  0  0  0  0  0  0  0  0  0  0
   19.2955   -6.9218   -5.3935 O   0  0  0  0  0  0  0  0  0  0  0  0
  1  2  1  0
  2  3  1  0
  2  4  1  0
  4  5  1  0
  5  6  1  0
  6  7  1  0
  7  8  1  6
  7  9  1  0
  9 10  1  0
 10 11  1  0
 11 12  1  0
 12 13  1  0
 13 14  1  0
 13 15  1  0
 15 16  1  0
 16 17  1  6
 16 18  1  0
 18 19  1  0
 19 20  1  0
 20 21  1  0
 21 22  1  0
 22 23  2  0
M  RAD  4   9   2  12   2  13   2  14   3
M  END
>  <docking_score>  (1) 
-3.3610000000000002

$$$$

     RDKit          3D

 23 22  0  0  0  0  0  0  0  0999 V2000
   15.9785   -1.2971   -1.8157 C   0  0  0  0  0  0  0  0  0  0  0  0
   17.0615   -2.1389   -2.4244 C   0  0  0  0  0  0  0  0  0  0  0  0
   18.4549   -1.7243   -2.0697 C   0  0  0  0  0  0  0  0  0  0  0  0
   16.7948   -3.6096   -2.3947 C   0  0  0  0  0  0  0  0  0  0  0  0
   18.0887   -4.3244   -2.0514 C   0  0  0  0  0  0  0  0  0  0  0  0
   18.1880   -5.5139   -2.9824 C   0  0  0  0  0  0  0  0  0  0  0  0
   19.6430   -5.7922   -3.3669 C   0  0  1  0  0  0  0  0  0  0  0  0
   19.7809   -7.3129   -3.5495 C   0  0  0  0  0  0  0  0  0  0  0  0
   19.9366   -5.1048   -4.6851 C   0  0  0  0  0  3  0  0  0  0  0  0
   20.5645   -3.7450   -4.4262 C   0  0  0  0  0  0  0  0  0  0  0  0
   20.3142   -2.8927   -5.6621 C   0  0  0  0  0  0  0  0  0  0  0  0
   18.8915   -2.9433   -6.1342 C   0  0  0  0  0  3  0  0  0  0  0  0
   18.1847   -1.7110   -5.6669 C   0  0  0  0  0  3  0  0  0  0  0  0
   18.9446   -0.4349   -5.8204 C   0  0  0  0  0  2  0  0  0  0  0  0
   16.7567   -1.6767   -6.0515 C   0  0  0  0  0  0  0  0  0  0  0  0
   16.3559   -2.2267   -7.3331 C   0  0  1  0  0  0  0  0  0  0  0  0
   17.1009   -2.0491   -8.4919 N   0  0  0  0  0  0  0  0  0  0  0  0
   15.3503   -3.3046   -7.2417 C   0  0  0  0  0  0  0  0  0  0  0  0
   15.3727   -3.9701   -5.8919 C   0  0  0  0  0  0  0  0  0  0  0  0
   15.4207   -5.4697   -5.9961 C   0  0  0  0  0  0  0  0  0  0  0  0
   16.7759   -6.0026   -6.3169 C   0  0  0  0  0  0  0  0  0  0  0  0
   16.7253   -7.4882   -6.2375 C   0  0  0  0  0  0  0  0  0  0  0  0
   16.9963   -8.0872   -5.1815 O   0  0  0  0  0  0  0  0  0  0  0  0
  1  2  1  0
  2  3  1  0
  2  4  1  0
  4  5  1  0
  5  6  1  0
  6  7  1  0
  7  8  1  6
  7  9  1  0
  9 10  1  0
 10 11  1  0
 11 12  1  0
 12 13  1  0
 13 14  1  0
 13 15  1  0
 15 16  1  0
 16 17  1  1
 16 18  1  0
 18 19  1  0
 19 20  1  0
 20 21  1  0
 21 22  1  0
 22 23  2  0
M  RAD  4   9   2  12   2  13   2  14   3
M  END
>  <docking_score>  (2) 
-3.2650000000000001

$$$$

     RDKit          3D

 23 22  0  0  0  0  0  0  0  0999 V2000
   16.4492   -3.8112   -7.5016 C   0  0  0  0  0  0  0  0  0  0  0  0
   15.2726   -3.2770   -6.7384 C   0  0  0  0  0  0  0  0  0  0  0  0
   14.3892   -4.3215   -6.1320 C   0  0  0  0  0  0  0  0  0  0  0  0
   15.5800   -2.1016   -5.8672 C   0  0  0  0  0  0  0  0  0  0  0  0
   14.7271   -2.1969   -4.6156 C   0  0  0  0  0  0  0  0  0  0  0  0
   15.5810   -1.6987   -3.4691 C   0  0  0  0  0  0  0  0  0  0  0  0
   16.8070   -2.5920   -3.2671 C   0  0  1  0  0  0  0  0  0  0  0  0
   17.9401   -1.6949   -2.7415 C   0  0  0  0  0  0  0  0  0  0  0  0
   16.4775   -3.6394   -2.2227 C   0  0  0  0  0  3  0  0  0  0  0  0
   16.2527   -4.9832   -2.8966 C   0  0  0  0  0  0  0  0  0  0  0  0
   17.5860   -5.4163   -3.4893 C   0  0  0  0  0  0  0  0  0  0  0  0
   17.4744   -5.8868   -4.9091 C   0  0  0  0  0  3  0  0  0  0  0  0
   18.0931   -7.2439   -5.0170 C   0  0  0  0  0  3  0  0  0  0  0  0
   17.2253   -8.3022   -5.6141 C   0  0  0  0  0  2  0  0  0  0  0  0
   19.4987   -7.2091   -5.4766 C   0  0  0  0  0  0  0  0  0  0  0  0
   19.8089   -6.6044   -6.7587 C   0  0  1  0  0  0  0  0  0  0  0  0
   18.8715   -6.4805   -7.7764 N   0  0  0  0  0  0  0  0  0  0  0  0
   21.0344   -5.7801   -6.7589 C   0  0  0  0  0  0  0  0  0  0  0  0
   20.8353   -4.4916   -7.5110 C   0  0  0  0  0  0  0  0  0  0  0  0
   20.2669   -3.4050   -6.6403 C   0  0  0  0  0  0  0  0  0  0  0  0
   20.1630   -2.0845   -7.3253 C   0  0  0  0  0  0  0  0  0  0  0  0
   20.0294   -1.0275   -6.2856 C   0  0  0  0  0  0  0  0  0  0  0  0
   18.9209   -0.5406   -5.9997 O   0  0  0  0  0  0  0  0  0  0  0  0
  1  2  1  0
  2  3  1  0
  2  4  1  0
  4  5  1  0
  5  6  1  0
  6  7  1  0
  7  8  1  1
  7  9  1  0
  9 10  1  0
 10 11  1  0
 11 12  1  0
 12 13  1  0
 13 14  1  0
 13 15  1  0
 15 16  1  0
 16 17  1  1
 16 18  1  0
 18 19  1  0
 19 20  1  0
 20 21  1  0
 21 22  1  0
 22 23  2  0
M  RAD  4   9   2  12   2  13   2  14   3
M  END
>  <docking_score>  (3) 
-2.556

$$$$
