
     RDKit          3D

 35 35  0  0  0  0  0  0  0  0999 V2000
    2.2611    7.4078    2.3107 C   0  0  0  0  0  0  0  0  0  0  0  0
    2.6464    8.0613    3.4759 O   0  0  0  0  0  0  0  0  0  0  0  0
    4.0170    7.9531    3.5877 C   0  0  0  0  0  3  0  0  0  0  0  0
    4.5264    8.5902    4.7203 O   0  0  0  0  0  0  0  0  0  0  0  0
    4.8861    9.8715    4.3444 C   0  0  2  0  0  0  0  0  0  0  0  0
    3.7250   10.7408    3.9928 C   0  0  0  0  0  0  0  0  0  0  0  0
    5.9317    9.8421    3.2639 C   0  0  0  0  0  3  0  0  0  0  0  0
    6.9835   10.8636    3.5779 C   0  0  1  0  0  0  0  0  0  0  0  0
    6.8073   12.0967    2.7537 C   0  0  0  0  0  3  0  0  0  0  0  0
    7.5672   13.2025    3.3861 C   0  0  0  0  0  0  0  0  0  0  0  0
    8.0640   14.1753    2.6553 C   0  0  0  0  0  0  0  0  0  0  0  0
    7.8885   14.2120    1.1710 C   0  0  0  0  0  0  0  0  0  0  0  0
    7.1697   11.1127    5.0360 C   0  0  0  0  0  3  0  0  0  0  0  0
    5.9602   11.3370    5.7133 O   0  0  0  0  0  0  0  0  0  0  0  0
    5.2532   12.3604    5.0902 C   0  0  0  0  0  3  0  0  0  0  0  0
    3.8107   11.9991    4.8319 C   0  0  2  0  0  0  0  0  0  0  0  0
    3.1760   11.7229    6.0428 O   0  0  0  0  0  0  0  0  0  0  0  0
    4.1075   11.8622    7.0155 N   0  0  0  0  0  2  0  0  0  0  0  0
    3.4944   12.4759    8.0810 O   0  0  0  0  0  0  0  0  0  0  0  0
    4.3707   12.4176    9.1583 C   0  0  0  0  0  3  0  0  0  0  0  0
    3.9820   13.3016   10.2979 C   0  0  2  0  0  0  0  0  0  0  0  0
    2.6241   13.5076   10.2799 O   0  0  0  0  0  0  0  0  0  0  0  0
    4.8036   14.5490   10.2653 C   0  0  0  0  0  0  0  0  0  0  0  0
    5.8475   14.5701   11.1570 O   0  0  0  0  0  0  0  0  0  0  0  0
    5.6099   13.6873   12.1831 C   0  0  2  0  0  0  0  0  0  0  0  0
    4.7292   14.2496   13.2038 N   0  0  0  0  0  1  0  0  0  0  0  0
    6.7872   13.3261   12.7898 O   0  0  0  0  0  0  0  0  0  0  0  0
    7.8626   13.4298   11.9285 C   0  0  0  0  0  0  0  0  0  0  0  0
    9.0325   13.3321   12.6550 O   0  0  0  0  0  0  0  0  0  0  0  0
    9.9538   14.2936   12.2373 C   0  0  2  0  0  0  0  0  0  0  0  0
   10.7335   13.7204   11.1558 N   0  0  0  0  0  1  0  0  0  0  0  0
   10.7733   14.6178   13.3415 O   0  0  0  0  0  0  0  0  0  0  0  0
   12.1079   14.6322   12.9642 C   0  0  0  0  0  3  0  0  0  0  0  0
   12.8550   14.4224   14.1360 O   0  0  0  0  0  0  0  0  0  0  0  0
   13.9966   15.2257   14.1315 C   0  0  0  0  0  2  0  0  0  0  0  0
  1  2  1  0
  2  3  1  0
  3  4  1  0
  5  4  1  6
  5  6  1  0
  5  7  1  0
  7  8  1  0
  8  9  1  6
  9 10  1  0
 10 11  2  3
 11 12  1  0
  8 13  1  0
 13 14  1  0
 14 15  1  0
 15 16  1  0
 16 17  1  1
 17 18  1  0
 18 19  1  0
 19 20  1  0
 20 21  1  0
 21 22  1  6
 21 23  1  0
 23 24  1  0
 24 25  1  0
 25 26  1  1
 25 27  1  0
 27 28  1  0
 28 29  1  0
 29 30  1  0
 30 31  1  6
 30 32  1  0
 32 33  1  0
 33 34  1  0
 34 35  1  0
 16  6  1  0
M  RAD  8   3   2   7   2   9   2  13   2  15   2  18   3  20   2  26   2
M  CHG  3  18   1  26   1  31   1
M  RAD  3  31   2  33   2  35   3
M  END
>  <docking_score>  (1) 
-2.778

$$$$

     RDKit          3D

 35 35  0  0  0  0  0  0  0  0999 V2000
   18.8030   -2.3493   -2.5729 C   0  0  0  0  0  0  0  0  0  0  0  0
   19.6895   -2.4842   -3.6355 O   0  0  0  0  0  0  0  0  0  0  0  0
   19.1393   -1.8472   -4.7283 C   0  0  0  0  0  3  0  0  0  0  0  0
   18.7760   -2.7266   -5.7496 O   0  0  0  0  0  0  0  0  0  0  0  0
   17.5314   -2.3336   -6.2070 C   0  0  2  0  0  0  0  0  0  0  0  0
   17.4548   -2.1960   -7.6911 C   0  0  0  0  0  0  0  0  0  0  0  0
   17.0587   -1.0998   -5.4888 C   0  0  0  0  0  3  0  0  0  0  0  0
   15.6125   -1.2702   -5.1310 C   0  0  1  0  0  0  0  0  0  0  0  0
   14.7276   -0.5191   -6.0710 C   0  0  0  0  0  3  0  0  0  0  0  0
   14.3226    0.7538   -5.4262 C   0  0  0  0  0  0  0  0  0  0  0  0
   13.5710    0.7473   -4.3482 C   0  0  0  0  0  0  0  0  0  0  0  0
   13.0952   -0.5278   -3.7293 C   0  0  0  0  0  0  0  0  0  0  0  0
   15.2095   -2.6863   -4.8963 C   0  0  0  0  0  3  0  0  0  0  0  0
   15.6336   -3.5538   -5.9158 O   0  0  0  0  0  0  0  0  0  0  0  0
   15.1991   -3.0800   -7.1497 C   0  0  0  0  0  3  0  0  0  0  0  0
   16.3001   -3.0453   -8.1814 C   0  0  2  0  0  0  0  0  0  0  0  0
   16.7979   -4.3338   -8.3746 O   0  0  0  0  0  0  0  0  0  0  0  0
   18.1184   -4.2082   -8.6466 N   0  0  0  0  0  2  0  0  0  0  0  0
   18.6943   -5.4390   -8.4436 O   0  0  0  0  0  0  0  0  0  0  0  0
   20.0476   -5.2330   -8.2027 C   0  0  0  0  0  3  0  0  0  0  0  0
   20.5510   -5.9194   -6.9753 C   0  0  2  0  0  0  0  0  0  0  0  0
   21.3792   -6.9553   -7.3325 O   0  0  0  0  0  0  0  0  0  0  0  0
   19.3956   -6.3120   -6.1132 C   0  0  0  0  0  0  0  0  0  0  0  0
   18.9786   -5.3399   -5.2377 O   0  0  0  0  0  0  0  0  0  0  0  0
   17.9374   -5.8085   -4.4729 C   0  0  2  0  0  0  0  0  0  0  0  0
   18.3976   -6.4339   -3.2356 N   0  0  0  0  0  1  0  0  0  0  0  0
   17.2063   -6.7368   -5.1718 O   0  0  0  0  0  0  0  0  0  0  0  0
   16.0073   -6.2163   -5.6194 C   0  0  0  0  0  0  0  0  0  0  0  0
   15.1592   -7.2554   -5.9463 O   0  0  0  0  0  0  0  0  0  0  0  0
   14.7937   -7.9709   -4.8052 C   0  0  2  0  0  0  0  0  0  0  0  0
   14.6651   -7.0258   -3.7113 N   0  0  0  0  0  1  0  0  0  0  0  0
   15.8079   -8.9191   -4.5442 O   0  0  0  0  0  0  0  0  0  0  0  0
   15.7565   -9.9486   -5.4723 C   0  0  0  0  0  3  0  0  0  0  0  0
   17.0747  -10.4113   -5.6268 O   0  0  0  0  0  0  0  0  0  0  0  0
   17.7989   -9.5423   -6.4446 C   0  0  0  0  0  2  0  0  0  0  0  0
  1  2  1  0
  2  3  1  0
  3  4  1  0
  5  4  1  6
  5  6  1  0
  5  7  1  0
  7  8  1  0
  8  9  1  6
  9 10  1  0
 10 11  2  3
 11 12  1  0
  8 13  1  0
 13 14  1  0
 14 15  1  0
 15 16  1  0
 16 17  1  1
 17 18  1  0
 18 19  1  0
 19 20  1  0
 20 21  1  0
 21 22  1  6
 21 23  1  0
 23 24  1  0
 24 25  1  0
 25 26  1  1
 25 27  1  0
 27 28  1  0
 28 29  1  0
 29 30  1  0
 30 31  1  1
 30 32  1  0
 32 33  1  0
 33 34  1  0
 34 35  1  0
 16  6  1  0
M  RAD  8   3   2   7   2   9   2  13   2  15   2  18   3  20   2  26   2
M  CHG  3  18   1  26   1  31   1
M  RAD  3  31   2  33   2  35   3
M  END
>  <docking_score>  (2) 
-1.9890000000000001

$$$$
