
     RDKit          3D

 59 61  0  0  0  0  0  0  0  0999 V2000
   16.5612   -0.9306   -6.2980 C   0  0  1  0  0  0  0  0  0  0  0  0
   16.8404    0.3887   -6.5264 O   0  0  0  0  0  0  0  0  0  0  0  0
   18.1905    0.4774   -6.8671 C   0  0  0  0  0  3  0  0  0  0  0  0
   18.8839    0.7270   -5.6896 O   0  0  0  0  0  0  0  0  0  0  0  0
   19.0008   -0.3912   -4.8835 C   0  0  2  0  0  0  0  0  0  0  0  0
   20.3681   -0.3217   -4.2329 C   0  0  0  0  0  0  0  0  0  0  0  0
   21.2614    0.6860   -4.9217 C   0  0  0  0  0  2  0  0  0  0  0  0
   18.8968   -1.6459   -5.6521 C   0  0  1  0  0  0  0  0  0  0  0  0
   19.3822   -2.8774   -4.9989 C   0  0  0  0  0  3  0  0  0  0  0  0
   18.4282   -3.5442   -4.0857 C   0  0  0  0  0  0  0  0  0  0  0  0
   19.0149   -4.0220   -2.8020 C   0  0  2  0  0  0  0  0  0  0  0  0
   20.8049   -3.8270   -2.6470 S   0  0  0  0  0  0  0  0  0  0  0  0
   20.0052   -5.2584   -3.2153 O   0  0  0  0  0  0  0  0  0  0  0  0
   17.6666   -1.8882   -6.4215 C   0  0  2  0  0  0  0  0  0  0  0  0
   17.9897   -2.0732   -7.7664 O   0  0  0  0  0  0  0  0  0  0  0  0
   18.5211   -3.3412   -7.9960 C   0  0  0  0  0  3  0  0  0  0  0  0
   19.8732   -3.4081   -7.6686 O   0  0  0  0  0  0  0  0  0  0  0  0
   20.6243   -4.0753   -8.6243 C   0  0  0  0  0  3  0  0  0  0  0  0
   20.3013   -5.5337   -8.7199 C   0  0  1  0  0  0  0  0  0  0  0  0
   21.1945   -6.3526   -7.8038 C   0  0  0  0  0  3  0  0  0  0  0  0
   20.9359   -6.0090   -6.4870 O   0  0  0  0  0  0  0  0  0  0  0  0
   20.4396   -7.0227   -5.8424 O   0  0  0  0  0  0  0  0  0  0  0  0
   21.3813   -7.9964   -5.5218 C   0  0  0  0  0  3  0  0  0  0  0  0
   20.8336   -9.0193   -4.7567 O   0  0  0  0  0  0  0  0  0  0  0  0
   21.3224   -8.9421   -3.4616 C   0  0  0  0  0  3  0  0  0  0  0  0
   20.8583   -7.7329   -2.8741 O   0  0  0  0  0  0  0  0  0  0  0  0
   19.6075   -7.6307   -2.3226 C   0  0  0  0  0  0  0  0  0  0  0  0
   18.8858   -6.6466   -2.5871 O   0  0  0  0  0  0  0  0  0  0  0  0
   18.9589   -5.7785   -8.4719 O   0  0  0  0  0  0  0  0  0  0  0  0
   18.7925   -6.3514   -6.8564 S   0  0  0  0  0  0  0  0  0  0  0  0
   17.4478   -7.4195   -6.8153 O   0  0  0  0  0  0  0  0  0  0  0  0
   17.7890   -8.7265   -5.7683 S   0  0  0  0  0  0  0  0  0  0  0  0
   16.4644   -9.1294   -4.7791 O   0  0  0  0  0  0  0  0  0  0  0  0
   15.4949   -8.1362   -4.8185 C   0  0  0  0  0  3  0  0  0  0  0  0
   14.6686   -8.3480   -5.9265 O   0  0  0  0  0  0  0  0  0  0  0  0
   14.5825   -7.1785   -6.6833 C   0  0  0  0  0  3  0  0  0  0  0  0
   14.5517   -5.9601   -5.7530 C   0  0  0  0  0  0  0  0  0  0  0  0
   13.1168   -5.4750   -5.7299 C   0  0  0  0  0  3  0  0  0  0  0  0
   13.0228   -3.9844   -5.5640 C   0  0  1  0  0  0  0  0  0  0  0  0
   11.9458   -3.6824   -4.7649 O   0  0  0  0  0  0  0  0  0  0  0  0
   14.3198   -3.3764   -5.0836 C   0  0  0  0  0  3  0  0  0  0  0  0
   14.5543   -3.5960   -3.6133 C   0  0  0  0  0  3  0  0  0  0  0  0
   15.3949   -2.2110   -2.8342 S   0  0  0  0  0  0  0  0  0  0  0  0
   16.1847   -1.1861   -3.9350 O   0  0  0  0  0  0  0  0  0  0  0  0
   15.5903   -1.1849   -5.1910 C   0  0  1  0  0  0  0  0  0  0  0  0
   14.5818   -0.0428   -5.1882 C   0  0  2  0  0  0  0  0  0  0  0  0
   15.0023    0.8478   -6.1777 O   0  0  0  0  0  0  0  0  0  0  0  0
   14.5917    0.8569   -3.6245 S   0  0  0  0  0  0  0  0  0  0  0  0
   13.7747    2.3500   -3.8063 O   0  0  0  0  0  0  0  0  0  0  0  0
   14.7921    3.5233   -4.5581 S   0  0  0  0  0  0  0  0  0  0  0  0
   16.2947    2.7957   -4.9386 O   0  0  0  0  0  0  0  0  0  0  0  0
   17.2360    3.8023   -5.1422 C   0  0  0  0  0  3  0  0  0  0  0  0
   17.0945    4.7986   -4.0100 C   0  0  0  0  0  3  0  0  0  0  0  0
   16.9445    6.0941   -4.4772 O   0  0  0  0  0  0  0  0  0  0  0  0
   18.4741    6.8621   -4.4370 S   0  0  0  0  0  0  0  0  0  0  0  0
   19.0986    6.8008   -2.7434 C   0  0  0  0  0  3  0  0  0  0  0  0
   20.5943    7.1022   -2.7062 C   0  0  0  0  0  3  0  0  0  0  0  0
   21.3800    5.8306   -2.5754 C   0  0  0  0  0  3  0  0  0  0  0  0
   20.2935    4.4558   -2.0971 S   0  0  0  0  0  0  0  0  0  0  0  0
  1  2  1  1
  2  3  1  0
  3  4  1  0
  4  5  1  0
  5  6  1  6
  6  7  1  0
  5  8  1  0
  8  9  1  1
  9 10  1  0
 11 10  1  6
 11 12  1  0
 11 13  1  0
  8 14  1  0
 14 15  1  6
 15 16  1  0
 16 17  1  0
 17 18  1  0
 18 19  1  0
 19 20  1  1
 20 21  1  0
 21 22  1  0
 22 23  1  0
 23 24  1  0
 24 25  1  0
 25 26  1  0
 26 27  1  0
 27 28  2  0
 19 29  1  0
 29 30  1  0
 30 31  1  0
 31 32  1  0
 32 33  1  0
 33 34  1  0
 34 35  1  0
 35 36  1  0
 36 37  1  0
 37 38  1  0
 38 39  1  0
 39 40  1  1
 39 41  1  0
 41 42  1  0
 42 43  1  0
 43 44  1  0
 45 44  1  1
 45 46  1  0
 46 47  1  6
 46 48  1  0
 48 49  1  0
 49 50  1  0
 50 51  1  0
 51 52  1  0
 52 53  1  0
 53 54  1  0
 54 55  1  0
 55 56  1  0
 56 57  1  0
 57 58  1  0
 58 59  1  0
 14  1  1  0
 45  1  1  0
 13 12  1  0
M  RAD  8   3   2   7   3   9   2  16   2  18   2  20   2  23   2  25   2
M  RAD  8  34   2  36   2  38   2  41   2  42   2  52   2  53   2  56   2
M  RAD  2  57   2  58   2
M  END
>  <docking_score>  (1) 
18.376999999999999

$$$$
