
     RDKit          3D

 16 17  0  0  0  0  0  0  0  0999 V2000
   15.0002   -1.6630   -4.3754 C   0  0  0  0  0  0  0  0  0  0  0  0
   14.8590   -2.2971   -5.6126 O   0  0  0  0  0  0  0  0  0  0  0  0
   15.8733   -1.8317   -6.4332 C   0  0  0  0  0  3  0  0  0  0  0  0
   17.1345   -2.1928   -5.9626 O   0  0  0  0  0  0  0  0  0  0  0  0
   17.2420   -3.5749   -6.0311 C   0  0  2  0  0  0  0  0  0  0  0  0
   15.9422   -4.2013   -6.4141 C   0  0  0  0  0  0  0  0  0  0  0  0
   17.8049   -4.0677   -4.7413 C   0  0  0  0  0  3  0  0  0  0  0  0
   16.8059   -4.5996   -3.7844 C   0  0  1  0  0  0  0  0  0  0  0  0
   17.4807   -4.8781   -2.4574 C   0  0  0  0  0  3  0  0  0  0  0  0
   18.9054   -4.4133   -2.4636 C   0  0  0  0  0  0  0  0  0  0  0  0
   19.1980   -3.4482   -1.3353 C   0  0  2  0  0  0  0  0  0  0  0  0
   20.2252   -2.3883   -1.6191 C   0  0  0  0  0  0  0  0  0  0  0  0
   20.5535   -3.5665   -0.8480 O   0  0  0  0  0  0  0  0  0  0  0  0
   15.6903   -3.8462   -3.5928 O   0  0  0  0  0  0  0  0  0  0  0  0
   15.8410   -2.5141   -3.4978 C   0  0  2  0  0  0  0  0  0  0  0  0
   16.1886   -1.9871   -2.2970 O   0  0  0  0  0  0  0  0  0  0  0  0
  1  2  1  0
  2  3  1  0
  3  4  1  0
  4  5  1  0
  5  6  1  1
  5  7  1  0
  7  8  1  0
  8  9  1  1
  9 10  1  0
 11 10  1  6
 11 12  1  0
 11 13  1  0
  8 14  1  0
 14 15  1  0
 15 16  1  1
 15  1  1  0
 13 12  1  0
M  RAD  3   3   2   7   2   9   2
M  END
>  <docking_score>  (1) 
-4.0999999999999996

$$$$

     RDKit          3D

 16 17  0  0  0  0  0  0  0  0999 V2000
   15.4636   -1.6974   -3.7320 C   0  0  0  0  0  0  0  0  0  0  0  0
   14.5464   -2.2712   -4.6164 O   0  0  0  0  0  0  0  0  0  0  0  0
   15.0594   -2.1262   -5.8949 C   0  0  0  0  0  3  0  0  0  0  0  0
   16.2472   -2.8349   -6.0659 O   0  0  0  0  0  0  0  0  0  0  0  0
   15.9614   -4.1891   -5.9605 C   0  0  2  0  0  0  0  0  0  0  0  0
   14.5466   -4.4133   -5.5401 C   0  0  0  0  0  0  0  0  0  0  0  0
   16.9751   -4.8156   -5.0642 C   0  0  0  0  0  3  0  0  0  0  0  0
   16.5297   -5.0279   -3.6666 C   0  0  1  0  0  0  0  0  0  0  0  0
   17.7066   -5.4816   -2.8282 C   0  0  0  0  0  3  0  0  0  0  0  0
   18.9055   -5.7642   -3.6817 C   0  0  0  0  0  0  0  0  0  0  0  0
   19.3212   -7.2181   -3.6221 C   0  0  2  0  0  0  0  0  0  0  0  0
   19.9378   -7.7832   -4.8709 C   0  0  0  0  0  0  0  0  0  0  0  0
   18.5579   -8.0459   -4.5282 O   0  0  0  0  0  0  0  0  0  0  0  0
   15.9029   -3.9816   -3.0656 O   0  0  0  0  0  0  0  0  0  0  0  0
   16.4011   -2.7501   -3.2693 C   0  0  2  0  0  0  0  0  0  0  0  0
   17.4417   -2.3389   -2.5020 O   0  0  0  0  0  0  0  0  0  0  0  0
  1  2  1  0
  2  3  1  0
  3  4  1  0
  4  5  1  0
  5  6  1  1
  5  7  1  0
  7  8  1  0
  8  9  1  1
  9 10  1  0
 11 10  1  6
 11 12  1  0
 11 13  1  0
  8 14  1  0
 14 15  1  0
 15 16  1  1
 15  1  1  0
 13 12  1  0
M  RAD  3   3   2   7   2   9   2
M  END
>  <docking_score>  (2) 
-4.0679999999999996

$$$$

     RDKit          3D

 16 17  0  0  0  0  0  0  0  0999 V2000
   20.1858   -4.2006   -1.7046 C   0  0  0  0  0  0  0  0  0  0  0  0
   20.6987   -2.9649   -1.3011 O   0  0  0  0  0  0  0  0  0  0  0  0
   21.3825   -2.4294   -2.3803 C   0  0  0  0  0  3  0  0  0  0  0  0
   20.5362   -2.1578   -3.4537 O   0  0  0  0  0  0  0  0  0  0  0  0
   19.6585   -1.1537   -3.0688 C   0  0  2  0  0  0  0  0  0  0  0  0
   19.8033   -0.8342   -1.6177 C   0  0  0  0  0  0  0  0  0  0  0  0
   18.2803   -1.5519   -3.4754 C   0  0  0  0  0  3  0  0  0  0  0  0
   17.4508   -2.1321   -2.3929 C   0  0  1  0  0  0  0  0  0  0  0  0
   16.1620   -2.6682   -2.9808 C   0  0  0  0  0  3  0  0  0  0  0  0
   15.2936   -1.5583   -3.4904 C   0  0  0  0  0  0  0  0  0  0  0  0
   14.6393   -1.9031   -4.8107 C   0  0  2  0  0  0  0  0  0  0  0  0
   15.0247   -1.0479   -5.9851 C   0  0  0  0  0  0  0  0  0  0  0  0
   13.7739   -0.8484   -5.2877 O   0  0  0  0  0  0  0  0  0  0  0  0
   18.0424   -3.0811   -1.6195 O   0  0  0  0  0  0  0  0  0  0  0  0
   18.8131   -3.9976   -2.2297 C   0  0  2  0  0  0  0  0  0  0  0  0
   18.2127   -5.0787   -2.7876 O   0  0  0  0  0  0  0  0  0  0  0  0
  1  2  1  0
  2  3  1  0
  3  4  1  0
  4  5  1  0
  5  6  1  1
  5  7  1  0
  7  8  1  0
  8  9  1  6
  9 10  1  0
 11 10  1  1
 11 12  1  0
 11 13  1  0
  8 14  1  0
 14 15  1  0
 15 16  1  1
 15  1  1  0
 13 12  1  0
M  RAD  3   3   2   7   2   9   2
M  END
>  <docking_score>  (3) 
-3.9950000000000001

$$$$
