
     RDKit          3D

 30 33  0  0  0  0  0  0  0  0999 V2000
   17.1634   -3.5493   -6.8732 C   0  0  0  0  0  0  0  0  0  0  0  0
   17.6408   -2.2073   -7.2704 C   0  0  1  0  0  0  0  0  0  0  0  0
   17.5312   -1.1448   -6.2403 C   0  0  0  0  0  0  0  0  0  0  0  0
   18.8778   -2.1765   -8.0948 C   0  0  0  0  0  0  0  0  0  0  0  0
   20.1443   -2.0362   -7.3162 C   0  0  0  0  0  0  0  0  0  0  0  0
   20.4077   -0.5785   -6.9723 C   0  0  0  0  0  0  0  0  0  0  0  0
   21.1933   -0.5645   -5.6873 C   0  0  0  0  0  0  0  0  0  0  0  0
   21.0906    0.8451   -5.1086 C   0  0  1  0  0  0  0  0  0  0  0  0
   19.7248    1.3716   -5.4707 C   0  0  0  0  0  2  0  0  0  0  0  0
   21.2147    0.7618   -3.5951 C   0  0  0  0  0  0  0  0  0  0  0  0
   20.8429   -0.6275   -3.1308 C   0  0  0  0  0  0  0  0  0  0  0  0
   20.3338   -0.6153   -1.6994 C   0  0  2  0  0  0  0  0  0  0  0  0
   21.3031   -1.3218   -0.7668 C   0  0  0  0  0  0  0  0  0  0  0  0
   19.0126   -1.3772   -1.6026 C   0  0  0  0  0  3  0  0  0  0  0  0
   18.4730   -1.5120   -2.9944 C   0  0  0  0  0  0  0  0  0  0  0  0
   18.3187   -2.9574   -3.4166 C   0  0  2  0  0  0  0  0  0  0  0  0
   18.6317   -3.1749   -4.8727 C   0  0  0  0  0  3  0  0  0  0  0  0
   16.8862   -3.3468   -3.2067 C   0  0  2  0  0  0  0  0  0  0  0  0
   16.7241   -4.5416   -2.3296 C   0  0  0  0  0  0  0  0  0  0  0  0
   16.3357   -3.5158   -4.5910 C   0  0  2  0  0  0  0  0  0  0  0  0
   15.2551   -4.3634   -4.6647 O   0  0  0  0  0  0  0  0  0  0  0  0
   15.4339   -5.5855   -4.0351 C   0  0  0  0  0  3  0  0  0  0  0  0
   15.3712   -6.6722   -5.0857 C   0  0  0  0  0  0  0  0  0  0  0  0
   16.6724   -7.4748   -4.9333 C   0  0  2  0  0  0  0  0  0  0  0  0
   17.7111   -6.4330   -4.5589 C   0  0  0  0  0  0  0  0  0  0  0  0
   16.9516   -7.9414   -6.2219 O   0  0  0  0  0  0  0  0  0  0  0  0
   18.0470   -7.3524   -6.8088 C   0  0  0  0  0  0  0  0  0  0  0  0
   17.9787   -5.8296   -6.8404 C   0  0  0  0  0  0  0  0  0  0  0  0
   17.7023   -5.4066   -5.4390 C   0  0  0  0  0  0  0  0  0  0  0  0
   17.4924   -3.9445   -5.4594 C   0  0  1  0  0  0  0  0  0  0  0  0
  1  2  1  0
  2  3  1  1
  2  4  1  0
  4  5  1  0
  5  6  1  0
  6  7  1  0
  7  8  1  0
  8  9  1  1
  8 10  1  0
 10 11  1  0
 11 12  1  0
 12 13  1  1
 12 14  1  0
 14 15  1  0
 16 15  1  6
 16 17  1  0
 16 18  1  0
 18 19  1  1
 18 20  1  0
 20 21  1  1
 21 22  1  0
 22 23  1  0
 24 23  1  6
 24 25  1  0
 24 26  1  0
 26 27  1  0
 27 28  1  0
 28 29  1  0
 29 30  1  0
 30  1  1  6
 30 17  1  0
 30 20  1  0
 25 29  2  0
M  RAD  4   9   3  14   2  17   2  22   2
M  END
>  <docking_score>  (1) 
-7.3010000000000002

$$$$

     RDKit          3D

 30 33  0  0  0  0  0  0  0  0999 V2000
    4.1121   11.6140    3.9743 C   0  0  0  0  0  0  0  0  0  0  0  0
    4.6475   12.5304    2.9445 C   0  0  1  0  0  0  0  0  0  0  0  0
    4.8683   13.9341    3.3719 C   0  0  0  0  0  0  0  0  0  0  0  0
    5.6881   11.9615    2.0478 C   0  0  0  0  0  0  0  0  0  0  0  0
    7.0933   12.1804    2.5034 C   0  0  0  0  0  0  0  0  0  0  0  0
    7.5830   13.5618    2.0982 C   0  0  0  0  0  0  0  0  0  0  0  0
    8.6082   13.9821    3.1184 C   0  0  0  0  0  0  0  0  0  0  0  0
    8.7838   15.4936    2.9885 C   0  0  1  0  0  0  0  0  0  0  0  0
    7.4411   16.0616    2.6031 C   0  0  0  0  0  2  0  0  0  0  0  0
    9.2005   16.0547    4.3392 C   0  0  0  0  0  0  0  0  0  0  0  0
    8.7760   15.1056    5.4362 C   0  0  0  0  0  0  0  0  0  0  0  0
    8.5709   15.8365    6.7521 C   0  0  2  0  0  0  0  0  0  0  0  0
    9.6226   15.4345    7.7722 C   0  0  0  0  0  0  0  0  0  0  0  0
    7.2192   15.4620    7.3588 C   0  0  0  0  0  3  0  0  0  0  0  0
    6.3982   14.8417    6.2690 C   0  0  0  0  0  0  0  0  0  0  0  0
    6.0002   13.4161    6.5859 C   0  0  2  0  0  0  0  0  0  0  0  0
    5.9865   12.5315    5.3682 C   0  0  0  0  0  3  0  0  0  0  0  0
    4.6050   13.4398    7.1341 C   0  0  2  0  0  0  0  0  0  0  0  0
    4.4898   12.8012    8.4765 C   0  0  0  0  0  0  0  0  0  0  0  0
    3.7711   12.7948    6.0681 C   0  0  2  0  0  0  0  0  0  0  0  0
    2.6094   12.2245    6.5337 O   0  0  0  0  0  0  0  0  0  0  0  0
    2.7728   11.3887    7.6277 C   0  0  0  0  0  3  0  0  0  0  0  0
    2.3776    9.9878    7.2157 C   0  0  0  0  0  0  0  0  0  0  0  0
    3.5839    9.0982    7.5527 C   0  0  2  0  0  0  0  0  0  0  0  0
    4.7873    9.9781    7.2666 C   0  0  0  0  0  0  0  0  0  0  0  0
    3.5431    8.0737    6.6014 O   0  0  0  0  0  0  0  0  0  0  0  0
    4.5567    8.1264    5.6736 C   0  0  0  0  0  0  0  0  0  0  0  0
    4.6553    9.4655    4.9513 C   0  0  0  0  0  0  0  0  0  0  0  0
    4.7168   10.5002    6.0214 C   0  0  0  0  0  0  0  0  0  0  0  0
    4.6730   11.8179    5.3552 C   0  0  1  0  0  0  0  0  0  0  0  0
  1  2  1  0
  2  3  1  1
  2  4  1  0
  4  5  1  0
  5  6  1  0
  6  7  1  0
  7  8  1  0
  8  9  1  1
  8 10  1  0
 10 11  1  0
 11 12  1  0
 12 13  1  1
 12 14  1  0
 14 15  1  0
 16 15  1  6
 16 17  1  0
 16 18  1  0
 18 19  1  1
 18 20  1  0
 20 21  1  1
 21 22  1  0
 22 23  1  0
 24 23  1  6
 24 25  1  0
 24 26  1  0
 26 27  1  0
 27 28  1  0
 28 29  1  0
 29 30  1  0
 30  1  1  6
 30 17  1  0
 30 20  1  0
 25 29  2  0
M  RAD  4   9   3  14   2  17   2  22   2
M  END
>  <docking_score>  (2) 
-5.8600000000000003

$$$$

     RDKit          3D

 30 33  0  0  0  0  0  0  0  0999 V2000
   20.7939   -3.9073   -4.9468 C   0  0  0  0  0  0  0  0  0  0  0  0
   20.5904   -4.7409   -6.1512 C   0  0  1  0  0  0  0  0  0  0  0  0
   19.5958   -5.8351   -6.0265 C   0  0  0  0  0  0  0  0  0  0  0  0
   20.5869   -4.0155   -7.4491 C   0  0  0  0  0  0  0  0  0  0  0  0
   19.2371   -3.5848   -7.9207 C   0  0  0  0  0  0  0  0  0  0  0  0
   18.5213   -4.7271   -8.6243 C   0  0  0  0  0  0  0  0  0  0  0  0
   17.0441   -4.5069   -8.4302 C   0  0  0  0  0  0  0  0  0  0  0  0
   16.3446   -5.8297   -8.7356 C   0  0  1  0  0  0  0  0  0  0  0  0
   17.2745   -6.9319   -8.2948 C   0  0  0  0  0  2  0  0  0  0  0  0
   15.0587   -5.9003   -7.9267 C   0  0  0  0  0  0  0  0  0  0  0  0
   15.1598   -4.9813   -6.7311 C   0  0  0  0  0  0  0  0  0  0  0  0
   14.2648   -5.4488   -5.5960 C   0  0  2  0  0  0  0  0  0  0  0  0
   13.1201   -4.4770   -5.3646 C   0  0  0  0  0  0  0  0  0  0  0  0
   15.0544   -5.5012   -4.2886 C   0  0  0  0  0  3  0  0  0  0  0  0
   16.5098   -5.4776   -4.6459 C   0  0  0  0  0  0  0  0  0  0  0  0
   17.2279   -4.2787   -4.0645 C   0  0  2  0  0  0  0  0  0  0  0  0
   18.2905   -3.7357   -4.9820 C   0  0  0  0  0  3  0  0  0  0  0  0
   17.9107   -4.7187   -2.8045 C   0  0  2  0  0  0  0  0  0  0  0  0
   17.5223   -3.9117   -1.6125 C   0  0  0  0  0  0  0  0  0  0  0  0
   19.3728   -4.6730   -3.1333 C   0  0  2  0  0  0  0  0  0  0  0  0
   20.1884   -4.5054   -2.0387 O   0  0  0  0  0  0  0  0  0  0  0  0
   19.8228   -3.4654   -1.1980 C   0  0  0  0  0  3  0  0  0  0  0  0
   20.9322   -2.4370   -1.2080 C   0  0  0  0  0  0  0  0  0  0  0  0
   20.2639   -1.1065   -1.5871 C   0  0  2  0  0  0  0  0  0  0  0  0
   19.1866   -1.5006   -2.5813 C   0  0  0  0  0  0  0  0  0  0  0  0
   21.2580   -0.3932   -2.2646 O   0  0  0  0  0  0  0  0  0  0  0  0
   21.0254   -0.2450   -3.6118 C   0  0  0  0  0  0  0  0  0  0  0  0
   20.7829   -1.5630   -4.3389 C   0  0  0  0  0  0  0  0  0  0  0  0
   19.7039   -2.2534   -3.5783 C   0  0  0  0  0  0  0  0  0  0  0  0
   19.5410   -3.5948   -4.1751 C   0  0  1  0  0  0  0  0  0  0  0  0
  1  2  1  0
  2  3  1  1
  2  4  1  0
  4  5  1  0
  5  6  1  0
  6  7  1  0
  7  8  1  0
  8  9  1  1
  8 10  1  0
 10 11  1  0
 11 12  1  0
 12 13  1  1
 12 14  1  0
 14 15  1  0
 16 15  1  6
 16 17  1  0
 16 18  1  0
 18 19  1  1
 18 20  1  0
 20 21  1  1
 21 22  1  0
 22 23  1  0
 24 23  1  6
 24 25  1  0
 24 26  1  0
 26 27  1  0
 27 28  1  0
 28 29  1  0
 29 30  1  0
 30  1  1  6
 30 17  1  0
 30 20  1  0
 25 29  2  0
M  RAD  4   9   3  14   2  17   2  22   2
M  END
>  <docking_score>  (3) 
-5.4989999999999997

$$$$
