
     RDKit          3D

 15 14  0  0  0  0  0  0  0  0999 V2000
   14.0066   -0.0952   -5.6845 C   0  0  0  0  0  0  0  0  0  0  0  0
   14.6175   -1.2514   -4.9601 C   0  0  0  0  0  0  0  0  0  0  0  0
   14.7757   -0.9956   -3.4875 C   0  0  0  0  0  0  0  0  0  0  0  0
   15.9339   -1.6902   -5.5792 C   0  0  0  0  0  0  0  0  0  0  0  0
   15.5549   -2.6392   -6.7245 C   0  0  0  0  0  0  0  0  0  0  0  0
   14.6728   -3.7031   -6.1048 C   0  0  0  0  0  0  0  0  0  0  0  0
   15.3822   -5.0295   -6.2881 C   0  0  2  0  0  0  0  0  0  0  0  0
   14.9253   -5.5896   -7.6193 C   0  0  0  0  0  0  0  0  0  0  0  0
   14.9676   -5.9059   -5.1576 C   0  0  0  0  0  0  0  0  0  0  0  0
   15.7661   -6.2205   -4.1633 C   0  0  0  0  0  0  0  0  0  0  0  0
   17.1319   -5.7586   -4.0462 C   0  0  0  0  0  0  0  0  0  0  0  0
   17.3970   -4.7525   -3.2325 C   0  0  0  0  0  0  0  0  0  0  0  0
   18.8136   -4.2898   -3.1250 C   0  0  0  0  0  0  0  0  0  0  0  0
   16.3178   -4.1016   -2.4484 C   0  0  0  0  0  0  0  0  0  0  0  0
   16.0127   -4.8855   -1.3347 F   0  0  0  0  0  0  0  0  0  0  0  0
  1  2  1  0
  2  3  1  0
  2  4  1  0
  4  5  1  0
  5  6  1  0
  6  7  1  0
  7  8  1  6
  7  9  1  0
  9 10  2  3
 10 11  1  0
 11 12  2  3
 12 13  1  0
 12 14  1  0
 14 15  1  0
M  END
>  <docking_score>  (1) 
-3.843

$$$$

     RDKit          3D

 15 14  0  0  0  0  0  0  0  0999 V2000
   18.0211   -2.9114   -2.2383 C   0  0  0  0  0  0  0  0  0  0  0  0
   17.9193   -4.3941   -2.4002 C   0  0  0  0  0  0  0  0  0  0  0  0
   19.2101   -5.0186   -2.8505 C   0  0  0  0  0  0  0  0  0  0  0  0
   16.7736   -4.7979   -3.3128 C   0  0  0  0  0  0  0  0  0  0  0  0
   17.4276   -5.2042   -4.6406 C   0  0  0  0  0  0  0  0  0  0  0  0
   16.6557   -6.4125   -5.1287 C   0  0  0  0  0  0  0  0  0  0  0  0
   15.1929   -6.1555   -4.8276 C   0  0  2  0  0  0  0  0  0  0  0  0
   14.6109   -7.4648   -4.3362 C   0  0  0  0  0  0  0  0  0  0  0  0
   14.5554   -5.7203   -6.1013 C   0  0  0  0  0  0  0  0  0  0  0  0
   14.1747   -4.4837   -6.3272 C   0  0  0  0  0  0  0  0  0  0  0  0
   14.3269   -3.4045   -5.3762 C   0  0  0  0  0  0  0  0  0  0  0  0
   14.9408   -2.2994   -5.7590 C   0  0  0  0  0  0  0  0  0  0  0  0
   15.0883   -1.1959   -4.7626 C   0  0  0  0  0  0  0  0  0  0  0  0
   15.4685   -2.1595   -7.1393 C   0  0  0  0  0  0  0  0  0  0  0  0
   16.6746   -2.8529   -7.2500 F   0  0  0  0  0  0  0  0  0  0  0  0
  1  2  1  0
  2  3  1  0
  2  4  1  0
  4  5  1  0
  5  6  1  0
  6  7  1  0
  7  8  1  6
  7  9  1  0
  9 10  2  3
 10 11  1  0
 11 12  2  3
 12 13  1  0
 12 14  1  0
 14 15  1  0
M  END
>  <docking_score>  (2) 
-3.8039999999999998

$$$$

     RDKit          3D

 15 14  0  0  0  0  0  0  0  0999 V2000
   16.5292   -1.1341   -5.7406 C   0  0  0  0  0  0  0  0  0  0  0  0
   15.7251   -2.0257   -4.8499 C   0  0  0  0  0  0  0  0  0  0  0  0
   14.2448   -1.8778   -5.0641 C   0  0  0  0  0  0  0  0  0  0  0  0
   16.0814   -1.8499   -3.3833 C   0  0  0  0  0  0  0  0  0  0  0  0
   16.2672   -3.2699   -2.8310 C   0  0  0  0  0  0  0  0  0  0  0  0
   17.0970   -4.0084   -3.8606 C   0  0  0  0  0  0  0  0  0  0  0  0
   17.4577   -5.3516   -3.2589 C   0  0  2  0  0  0  0  0  0  0  0  0
   18.7373   -5.1499   -2.4739 C   0  0  0  0  0  0  0  0  0  0  0  0
   17.6573   -6.2975   -4.3918 C   0  0  0  0  0  0  0  0  0  0  0  0
   16.6806   -6.6965   -5.1740 C   0  0  0  0  0  0  0  0  0  0  0  0
   15.3057   -6.2701   -5.0321 C   0  0  0  0  0  0  0  0  0  0  0  0
   14.7152   -5.6726   -6.0514 C   0  0  0  0  0  0  0  0  0  0  0  0
   13.2949   -5.2394   -5.8857 C   0  0  0  0  0  0  0  0  0  0  0  0
   15.4430   -5.4389   -7.3239 C   0  0  0  0  0  0  0  0  0  0  0  0
   15.9609   -4.1429   -7.3336 F   0  0  0  0  0  0  0  0  0  0  0  0
  1  2  1  0
  2  3  1  0
  2  4  1  0
  4  5  1  0
  5  6  1  0
  6  7  1  0
  7  8  1  6
  7  9  1  0
  9 10  2  3
 10 11  1  0
 11 12  2  3
 12 13  1  0
 12 14  1  0
 14 15  1  0
M  END
>  <docking_score>  (3) 
-3.702

$$$$
