
     RDKit          3D

 31 32  0  0  0  0  0  0  0  0999 V2000
   15.9485   -8.1504   -5.4924 C   0  0  0  0  0  0  0  0  0  0  0  0
   15.8027   -6.6862   -5.5787 C   0  0  0  0  0  0  0  0  0  0  0  0
   14.5725   -6.2043   -5.5011 C   0  0  0  0  0  0  0  0  0  0  0  0
   14.3168   -4.7496   -5.5769 C   0  0  0  0  0  0  0  0  0  0  0  0
   15.3248   -3.8916   -5.7592 C   0  0  0  0  0  0  0  0  0  0  0  0
   15.0585   -2.4128   -5.8355 C   0  0  0  0  0  0  0  0  0  0  0  0
   14.0738   -2.0311   -4.7779 C   0  0  0  0  0  0  0  0  0  0  0  0
   14.5857   -0.9817   -3.8572 C   0  0  0  0  0  0  0  0  0  0  0  0
   13.9647    0.1168   -3.8318 O   0  0  0  0  0  0  0  0  0  0  0  0
   15.6886   -1.1692   -3.0529 O   0  0  0  0  0  0  0  0  0  0  0  0
   16.8768   -1.8295   -3.5114 C   0  0  0  0  0  3  0  0  0  0  0  0
   18.0147   -1.1584   -2.8294 C   0  0  0  0  0  0  0  0  0  0  0  0
   18.9516   -1.7634   -2.1448 C   0  0  0  0  0  0  0  0  0  0  0  0
   20.1589   -1.2834   -1.3966 C   0  0  0  0  0  0  0  0  0  0  0  0
   21.1227   -2.2120   -1.6808 O   0  0  0  0  0  0  0  0  0  0  0  0
   20.5511   -3.4162   -1.9842 C   0  0  2  0  0  0  0  0  0  0  0  0
   20.8969   -3.7319   -3.4372 C   0  0  0  0  0  0  0  0  0  0  0  0
   19.0398   -3.2379   -1.9298 C   0  0  1  0  0  0  0  0  0  0  0  0
   18.6614   -3.5692   -0.6175 O   0  0  0  0  0  0  0  0  0  0  0  0
   18.3113   -4.0394   -2.9460 C   0  0  0  0  0  3  0  0  0  0  0  0
   16.9639   -4.5153   -2.4511 C   0  0  0  0  0  0  0  0  0  0  0  0
   19.1315   -5.3102   -3.2119 C   0  0  0  0  0  0  0  0  0  0  0  0
   18.1758   -6.4117   -3.5953 C   0  0  0  0  0  0  0  0  0  0  0  0
   18.8551   -7.6091   -4.1642 C   0  0  0  0  0  0  0  0  0  0  0  0
   18.3472   -7.9952   -5.5340 C   0  0  0  0  0  0  0  0  0  0  0  0
   18.1628   -6.6922   -6.3101 C   0  0  0  0  0  0  0  0  0  0  0  0
   19.4627   -8.7579   -6.2218 C   0  0  0  0  0  0  0  0  0  0  0  0
   17.0890   -8.7669   -5.4706 C   0  0  0  0  0  0  0  0  0  0  0  0
   17.1500  -10.1792   -5.3863 N   0  0  0  0  0  0  0  0  0  0  0  0
   16.8913  -10.9337   -6.3124 N   0  0  0  0  0  4  0  0  0  0  0  0
   17.0283  -11.6173   -7.3309 N   0  0  0  0  0  2  0  0  0  0  0  0
  1  2  1  0
  2  3  2  0
  3  4  1  0
  4  5  2  0
  5  6  1  0
  6  7  1  0
  7  8  1  0
  8  9  2  0
  8 10  1  0
 10 11  1  0
 11 12  1  0
 12 13  2  3
 13 14  1  0
 14 15  1  0
 15 16  1  0
 16 17  1  6
 16 18  1  0
 18 19  1  1
 18 20  1  0
 20 21  1  0
 20 22  1  0
 22 23  1  0
 23 24  1  0
 24 25  1  0
 25 26  1  0
 25 27  1  0
 25 28  1  0
 28 29  1  0
 29 30  2  0
 30 31  2  0
  1 28  2  0
 18 13  1  0
M  CHG  2  30   1  31  -1
M  RAD  2  11   2  20   2
M  END
>  <docking_score>  (1) 
-6.681

$$$$

     RDKit          3D

 31 32  0  0  0  0  0  0  0  0999 V2000
   17.9895   -1.6006   -2.5335 C   0  0  0  0  0  0  0  0  0  0  0  0
   17.1376   -2.5876   -3.2210 C   0  0  0  0  0  0  0  0  0  0  0  0
   16.0060   -2.1389   -3.7404 C   0  0  0  0  0  0  0  0  0  0  0  0
   15.0798   -3.0469   -4.4509 C   0  0  0  0  0  0  0  0  0  0  0  0
   15.3531   -4.3509   -4.5541 C   0  0  0  0  0  0  0  0  0  0  0  0
   14.4070   -5.2697   -5.2781 C   0  0  0  0  0  0  0  0  0  0  0  0
   13.9401   -4.6101   -6.5354 C   0  0  0  0  0  0  0  0  0  0  0  0
   14.2288   -5.4107   -7.7547 C   0  0  0  0  0  0  0  0  0  0  0  0
   13.2407   -5.8032   -8.4350 O   0  0  0  0  0  0  0  0  0  0  0  0
   15.5093   -5.7276   -8.1524 O   0  0  0  0  0  0  0  0  0  0  0  0
   16.5276   -6.1355   -7.2278 C   0  0  0  0  0  3  0  0  0  0  0  0
   17.3686   -7.1283   -7.9472 C   0  0  0  0  0  0  0  0  0  0  0  0
   18.6712   -7.0766   -8.0622 C   0  0  0  0  0  0  0  0  0  0  0  0
   19.6857   -7.9558   -8.7297 C   0  0  0  0  0  0  0  0  0  0  0  0
   20.7390   -7.9778   -7.8566 O   0  0  0  0  0  0  0  0  0  0  0  0
   20.7502   -6.8440   -7.0929 C   0  0  2  0  0  0  0  0  0  0  0  0
   20.5267   -7.2683   -5.6436 C   0  0  0  0  0  0  0  0  0  0  0  0
   19.5408   -6.0076   -7.4885 C   0  0  1  0  0  0  0  0  0  0  0  0
   19.9885   -5.1398   -8.4992 O   0  0  0  0  0  0  0  0  0  0  0  0
   18.9266   -5.2780   -6.3500 C   0  0  0  0  0  3  0  0  0  0  0  0
   18.3493   -3.9424   -6.7621 C   0  0  0  0  0  0  0  0  0  0  0  0
   20.0431   -4.9585   -5.3453 C   0  0  0  0  0  0  0  0  0  0  0  0
   19.6783   -3.6813   -4.6314 C   0  0  0  0  0  0  0  0  0  0  0  0
   20.5196   -3.4167   -3.4310 C   0  0  0  0  0  0  0  0  0  0  0  0
   19.7181   -3.2299   -2.1636 C   0  0  0  0  0  0  0  0  0  0  0  0
   18.6116   -4.2829   -2.1923 C   0  0  0  0  0  0  0  0  0  0  0  0
   20.6298   -3.5870   -1.0058 C   0  0  0  0  0  0  0  0  0  0  0  0
   19.1612   -1.8665   -2.0461 C   0  0  0  0  0  0  0  0  0  0  0  0
   19.9230   -0.8642   -1.3975 N   0  0  0  0  0  0  0  0  0  0  0  0
   20.6989   -0.1137   -1.9705 N   0  0  0  0  0  4  0  0  0  0  0  0
   21.1297    0.8544   -2.6034 N   0  0  0  0  0  2  0  0  0  0  0  0
  1  2  1  0
  2  3  2  0
  3  4  1  0
  4  5  2  0
  5  6  1  0
  6  7  1  0
  7  8  1  0
  8  9  2  0
  8 10  1  0
 10 11  1  0
 11 12  1  0
 12 13  2  3
 13 14  1  0
 14 15  1  0
 15 16  1  0
 16 17  1  1
 16 18  1  0
 18 19  1  6
 18 20  1  0
 20 21  1  0
 20 22  1  0
 22 23  1  0
 23 24  1  0
 24 25  1  0
 25 26  1  0
 25 27  1  0
 25 28  1  0
 28 29  1  0
 29 30  2  0
 30 31  2  0
  1 28  2  0
 18 13  1  0
M  CHG  2  30   1  31  -1
M  RAD  2  11   2  20   2
M  END
>  <docking_score>  (2) 
-6.5819999999999999

$$$$

     RDKit          3D

 31 32  0  0  0  0  0  0  0  0999 V2000
    5.2591   13.3740    9.1472 C   0  0  0  0  0  0  0  0  0  0  0  0
    5.1317   13.3853    7.6787 C   0  0  0  0  0  0  0  0  0  0  0  0
    6.0245   14.0962    7.0086 C   0  0  0  0  0  0  0  0  0  0  0  0
    5.9856   14.1738    5.5323 C   0  0  0  0  0  0  0  0  0  0  0  0
    5.0235   13.5514    4.8448 C   0  0  0  0  0  0  0  0  0  0  0  0
    4.9891   13.6339    3.3430 C   0  0  0  0  0  0  0  0  0  0  0  0
    6.3735   13.4664    2.8052 C   0  0  0  0  0  0  0  0  0  0  0  0
    6.4925   12.3376    1.8447 C   0  0  0  0  0  0  0  0  0  0  0  0
    6.8312   12.6194    0.6620 O   0  0  0  0  0  0  0  0  0  0  0  0
    6.2501   11.0285    2.1993 O   0  0  0  0  0  0  0  0  0  0  0  0
    5.1532   10.6457    3.0411 C   0  0  0  0  0  3  0  0  0  0  0  0
    4.6999    9.3162    2.5539 C   0  0  0  0  0  0  0  0  0  0  0  0
    4.5485    8.2485    3.2954 C   0  0  0  0  0  0  0  0  0  0  0  0
    4.1119    6.8434    3.0076 C   0  0  0  0  0  0  0  0  0  0  0  0
    3.3284    6.5081    4.0780 O   0  0  0  0  0  0  0  0  0  0  0  0
    3.6867    7.2354    5.1787 C   0  0  2  0  0  0  0  0  0  0  0  0
    2.4952    8.1134    5.5527 C   0  0  0  0  0  0  0  0  0  0  0  0
    4.8058    8.1812    4.7642 C   0  0  1  0  0  0  0  0  0  0  0  0
    6.0042    7.4950    5.0248 O   0  0  0  0  0  0  0  0  0  0  0  0
    4.7510    9.4994    5.4463 C   0  0  0  0  0  3  0  0  0  0  0  0
    6.1252   10.0769    5.7013 C   0  0  0  0  0  0  0  0  0  0  0  0
    4.1259    9.2808    6.8318 C   0  0  0  0  0  0  0  0  0  0  0  0
    4.6986   10.3121    7.7711 C   0  0  0  0  0  0  0  0  0  0  0  0
    3.9638   10.4040    9.0636 C   0  0  0  0  0  0  0  0  0  0  0  0
    3.4603   11.7950    9.3720 C   0  0  0  0  0  0  0  0  0  0  0  0
    2.9167   12.3591    8.0604 C   0  0  0  0  0  0  0  0  0  0  0  0
    2.2747   11.6407   10.3047 C   0  0  0  0  0  0  0  0  0  0  0  0
    4.5148   12.6629    9.9355 C   0  0  0  0  0  0  0  0  0  0  0  0
    4.6965   12.7041   11.3394 N   0  0  0  0  0  0  0  0  0  0  0  0
    5.5180   13.4108   11.9045 N   0  0  0  0  0  4  0  0  0  0  0  0
    6.0353   14.3946   12.4412 N   0  0  0  0  0  2  0  0  0  0  0  0
  1  2  1  0
  2  3  2  0
  3  4  1  0
  4  5  2  0
  5  6  1  0
  6  7  1  0
  7  8  1  0
  8  9  2  0
  8 10  1  0
 10 11  1  0
 11 12  1  0
 12 13  2  3
 13 14  1  0
 14 15  1  0
 15 16  1  0
 16 17  1  6
 16 18  1  0
 18 19  1  6
 18 20  1  0
 20 21  1  0
 20 22  1  0
 22 23  1  0
 23 24  1  0
 24 25  1  0
 25 26  1  0
 25 27  1  0
 25 28  1  0
 28 29  1  0
 29 30  2  0
 30 31  2  0
  1 28  2  0
 18 13  1  0
M  CHG  2  30   1  31  -1
M  RAD  2  11   2  20   2
M  END
>  <docking_score>  (3) 
-5.9370000000000003

$$$$
