
     RDKit          3D

 15 14  0  0  0  0  0  0  0  0999 V2000
   18.2510   -8.3013   -4.9305 O   0  0  0  0  0  0  0  0  0  0  0  0
   17.1511   -7.7528   -5.5870 C   0  0  0  0  0  0  0  0  0  0  0  0
   16.5587   -6.6214   -4.7626 C   0  0  0  0  0  3  0  0  0  0  0  0
   17.2154   -5.3711   -4.9815 N   0  0  0  0  0  0  0  0  0  0  0  0
   17.5539   -4.6521   -3.8068 C   0  0  2  0  0  0  0  0  0  0  0  0
   18.2848   -5.3819   -2.7448 C   0  0  0  0  0  0  0  0  0  0  0  0
   19.4204   -4.7747   -2.2888 O   0  0  0  0  0  0  0  0  0  0  0  0
   16.3258   -3.9621   -3.2195 C   0  0  1  0  0  0  0  0  0  0  0  0
   16.1879   -4.3309   -1.8805 O   0  0  0  0  0  0  0  0  0  0  0  0
   16.4927   -2.4525   -3.2665 C   0  0  2  0  0  0  0  0  0  0  0  0
   17.0405   -2.0084   -2.0653 O   0  0  0  0  0  0  0  0  0  0  0  0
   15.2127   -1.9236   -3.4693 O   0  0  0  0  0  0  0  0  0  0  0  0
   14.7053   -2.2023   -4.7247 C   0  0  0  0  0  3  0  0  0  0  0  0
   14.1078   -0.9505   -5.3615 C   0  0  0  0  0  0  0  0  0  0  0  0
   15.0849   -0.0096   -5.6791 O   0  0  0  0  0  0  0  0  0  0  0  0
  1  2  1  0
  2  3  1  0
  3  4  1  0
  4  5  1  0
  5  6  1  1
  6  7  1  0
  5  8  1  0
  8  9  1  1
  8 10  1  0
 10 11  1  1
 10 12  1  0
 12 13  1  0
 13 14  1  0
 14 15  1  0
M  RAD  2   3   2  13   2
M  END
>  <docking_score>  (1) 
-3.1619999999999999

$$$$

     RDKit          3D

 15 14  0  0  0  0  0  0  0  0999 V2000
   16.4861   -2.0316   -2.2028 O   0  0  0  0  0  0  0  0  0  0  0  0
   17.2878   -3.1553   -2.0123 C   0  0  0  0  0  0  0  0  0  0  0  0
   16.4590   -4.4214   -2.1555 C   0  0  0  0  0  3  0  0  0  0  0  0
   16.0150   -4.6467   -3.4951 N   0  0  0  0  0  0  0  0  0  0  0  0
   16.4094   -5.8851   -4.0627 C   0  0  2  0  0  0  0  0  0  0  0  0
   17.7561   -5.9584   -4.6759 C   0  0  0  0  0  0  0  0  0  0  0  0
   18.1958   -4.8088   -5.2685 O   0  0  0  0  0  0  0  0  0  0  0  0
   15.3573   -6.3921   -5.0451 C   0  0  1  0  0  0  0  0  0  0  0  0
   14.3802   -7.1023   -4.3459 O   0  0  0  0  0  0  0  0  0  0  0  0
   14.6721   -5.2254   -5.7368 C   0  0  2  0  0  0  0  0  0  0  0  0
   13.2934   -5.4233   -5.7247 O   0  0  0  0  0  0  0  0  0  0  0  0
   15.1715   -5.1979   -7.0442 O   0  0  0  0  0  0  0  0  0  0  0  0
   15.0996   -3.9449   -7.6240 C   0  0  0  0  0  3  0  0  0  0  0  0
   15.4890   -2.8587   -6.6251 C   0  0  0  0  0  0  0  0  0  0  0  0
   16.3085   -1.8901   -7.2006 O   0  0  0  0  0  0  0  0  0  0  0  0
  1  2  1  0
  2  3  1  0
  3  4  1  0
  4  5  1  0
  5  6  1  6
  6  7  1  0
  5  8  1  0
  8  9  1  1
  8 10  1  0
 10 11  1  6
 10 12  1  0
 12 13  1  0
 13 14  1  0
 14 15  1  0
M  RAD  2   3   2  13   2
M  END
>  <docking_score>  (2) 
-3.0859999999999999

$$$$

     RDKit          3D

 15 14  0  0  0  0  0  0  0  0999 V2000
   18.9277   -4.6320   -2.3129 O   0  0  0  0  0  0  0  0  0  0  0  0
   17.9614   -5.5945   -2.5987 C   0  0  0  0  0  0  0  0  0  0  0  0
   16.6517   -4.9251   -2.9824 C   0  0  0  0  0  3  0  0  0  0  0  0
   15.7446   -5.8135   -3.6384 N   0  0  0  0  0  0  0  0  0  0  0  0
   15.7450   -5.7409   -5.0548 C   0  0  2  0  0  0  0  0  0  0  0  0
   16.6273   -6.6786   -5.7875 C   0  0  0  0  0  0  0  0  0  0  0  0
   16.5716   -7.9805   -5.3774 O   0  0  0  0  0  0  0  0  0  0  0  0
   15.9933   -4.3105   -5.5253 C   0  0  1  0  0  0  0  0  0  0  0  0
   17.0255   -4.3084   -6.4647 O   0  0  0  0  0  0  0  0  0  0  0  0
   14.7529   -3.7524   -6.2027 C   0  0  2  0  0  0  0  0  0  0  0  0
   14.8078   -4.0235   -7.5679 O   0  0  0  0  0  0  0  0  0  0  0  0
   14.7590   -2.3746   -5.9562 O   0  0  0  0  0  0  0  0  0  0  0  0
   14.7444   -2.0664   -4.6085 C   0  0  0  0  0  3  0  0  0  0  0  0
   14.1101   -0.6992   -4.3687 C   0  0  0  0  0  0  0  0  0  0  0  0
   13.9694    0.0252   -5.5504 O   0  0  0  0  0  0  0  0  0  0  0  0
  1  2  1  0
  2  3  1  0
  3  4  1  0
  4  5  1  0
  5  6  1  6
  6  7  1  0
  5  8  1  0
  8  9  1  6
  8 10  1  0
 10 11  1  6
 10 12  1  0
 12 13  1  0
 13 14  1  0
 14 15  1  0
M  RAD  2   3   2  13   2
M  END
>  <docking_score>  (3) 
-2.9689999999999999

$$$$
