
     RDKit          3D

 81 82  0  0  0  0  0  0  0  0999 V2000
   12.3749    4.7365    6.4879 C   0  0  0  0  0  0  0  0  0  0  0  0
   11.1500    5.5804    6.2946 C   0  0  0  0  0  0  0  0  0  0  0  0
   10.6560    6.4521    7.4108 C   0  0  0  0  0  0  0  0  0  0  0  0
   10.4191    5.5527    4.9849 C   0  0  0  0  0  0  0  0  0  0  0  0
    9.0895    4.8659    4.8825 C   0  0  0  0  0  0  0  0  0  0  0  0
    8.4908    4.2069    6.0898 C   0  0  0  0  0  0  0  0  0  0  0  0
    9.3761    3.5123    7.0816 C   0  0  0  0  0  0  0  0  0  0  0  0
    8.7773    2.8534    8.2887 C   0  0  0  0  0  0  0  0  0  0  0  0
    8.9088    3.4970    9.6372 O   0  0  0  0  0  0  0  0  0  0  0  0
    8.0471    1.5507    8.1474 C   0  0  0  0  0  0  0  0  0  0  0  0
    6.7762    1.4856    7.3534 C   0  0  0  0  0  0  0  0  0  0  0  0
    5.7364    2.5548    7.5133 O   0  0  0  0  0  0  0  0  0  0  0  0
    6.5451    0.3514    6.3994 C   0  0  0  0  0  0  0  0  0  0  0  0
    7.5943   -0.0032    5.3876 C   0  0  0  0  0  0  0  0  0  0  0  0
    9.0019   -0.2731    5.8299 O   0  0  0  0  0  0  0  0  0  0  0  0
    7.2357   -0.0880    3.9336 O   0  0  0  0  0  0  0  0  0  0  0  0
    8.3586    4.8381    3.5730 C   0  0  0  0  0  0  0  0  0  0  0  0
    8.4745    3.6425    2.6746 C   0  0  0  0  0  0  0  0  0  0  0  0
    8.0907    3.7509    1.2286 C   0  0  0  0  0  0  0  0  0  0  0  0
    8.2066    2.5553    0.3302 C   0  0  0  0  0  0  0  0  0  0  0  0
    8.7064    1.2513    0.8779 C   0  0  0  0  0  0  0  0  0  0  0  0
    8.8223    0.0557   -0.0206 F   0  0  0  0  0  0  0  0  0  0  0  0
    9.0902    1.1429    2.3238 C   0  0  0  0  0  0  0  0  0  0  0  0
    8.9743    2.3385    3.2222 C   0  0  0  0  0  0  0  0  0  0  0  0
    7.5117    6.0059    3.1618 C   0  0  0  0  0  0  0  0  0  0  0  0
    7.3958    7.2015    4.0601 N   0  0  0  0  0  0  0  0  0  0  0  0
    6.2142    8.1179    3.9404 C   0  0  0  0  0  0  0  0  0  0  0  0
    6.4197    9.5683    3.6177 C   0  0  0  0  0  0  0  0  0  0  0  0
    7.8066   10.1023    3.4146 S   0  0  0  0  0  0  0  0  0  0  0  0
    9.1755    9.4947    3.3315 C   0  0  0  0  0  0  0  0  0  0  0  0
    9.7680   10.8576    3.1275 C   0  0  0  0  0  0  0  0  0  0  0  0
    8.3991   11.4652    3.2107 C   0  0  0  0  0  0  0  0  0  0  0  0
    7.8501   12.8585    3.1253 C   0  0  0  0  0  0  0  0  0  0  0  0
    6.3991   13.0750    2.8126 C   0  0  0  0  0  0  0  0  0  0  0  0
    5.4989   13.7096    3.8309 C   0  0  0  0  0  0  0  0  0  0  0  0
    6.0498   14.1277    5.1619 O   0  0  0  0  0  0  0  0  0  0  0  0
    4.0480   13.9261    3.5182 C   0  0  0  0  0  0  0  0  0  0  0  0
    5.2382   10.4846    3.4979 C   0  0  0  0  0  0  0  0  0  0  0  0
    4.7446   11.2331    4.7005 C   0  0  0  0  0  0  0  0  0  0  0  0
    5.0044   10.6962    6.0768 C   0  0  0  0  0  0  0  0  0  0  0  0
    4.5109   11.4447    7.2793 N   0  0  0  0  0  0  0  0  0  0  0  0
    3.0381   11.5561    7.5410 C   0  0  0  0  0  0  0  0  0  0  0  0
    2.3303   12.8570    7.3028 O   0  0  0  0  0  0  0  0  0  0  0  0
    2.2731   10.3666    8.0410 C   0  0  0  0  0  0  0  0  0  0  0  0
    2.9774    9.0610    8.2625 C   0  0  0  0  0  0  0  0  0  0  0  0
    2.2612    7.9269    8.9339 O   0  0  0  0  0  0  0  0  0  0  0  0
    2.8889    6.5652    8.9791 C   0  0  0  0  0  0  0  0  0  0  0  0
    2.7165    5.6213    7.8262 C   0  0  0  0  0  0  0  0  0  0  0  0
    2.4935    4.1599    8.0803 C   0  0  0  0  0  0  0  0  0  0  0  0
    2.7671    6.1387    6.4191 C   0  0  0  0  0  0  0  0  0  0  0  0
    2.3944    7.5626    6.1298 C   0  0  0  0  0  0  0  0  0  0  0  0
    2.4450    8.0800    4.7227 C   0  0  0  0  0  0  0  0  0  0  0  0
    3.7527    8.5137    4.1297 C   0  0  0  0  0  0  0  0  0  0  0  0
    4.2057    7.9465    2.8170 O   0  0  0  0  0  0  0  0  0  0  0  0
    4.6074    9.5145    4.8493 O   0  0  0  0  0  0  0  0  0  0  0  0
    4.7931    9.4123    6.3342 C   0  0  0  0  0  0  0  0  0  0  0  0
    5.8158   10.2668    7.0227 C   0  0  0  0  0  0  0  0  0  0  0  0
    6.0014   10.1646    8.5077 O   0  0  0  0  0  0  0  0  0  0  0  0
    5.3102    9.0781    9.2769 C   0  0  0  0  0  0  0  0  0  0  0  0
    4.3364    9.4305   10.3620 C   0  0  0  0  0  0  0  0  0  0  0  0
    4.4376   10.7545   11.0597 C   0  0  0  0  0  0  0  0  0  0  0  0
    4.8968   10.8174   12.4862 C   0  0  0  0  0  0  0  0  0  0  0  0
    5.2550    9.5562   13.2152 O   0  0  0  0  0  0  0  0  0  0  0  0
    4.9980   12.1414   13.1839 C   0  0  0  0  0  0  0  0  0  0  0  0
    4.5997   12.2621   14.6250 C   0  0  0  0  0  0  0  0  0  0  0  0
    5.4222   11.5972   15.6887 C   0  0  0  0  0  0  0  0  0  0  0  0
    6.8756   11.3160   15.4467 O   0  0  0  0  0  0  0  0  0  0  0  0
    4.7913   11.2136   16.9944 O   0  0  0  0  0  0  0  0  0  0  0  0
    3.4758   11.8119   17.3962 N   0  0  0  0  0  0  0  0  0  0  0  0
    3.2114   13.2694   17.1603 C   0  0  0  0  0  0  0  0  0  0  0  0
    4.0255   14.3050   17.8778 C   0  0  0  0  0  3  0  0  0  0  0  0
    4.0475   15.7195   17.3792 O   0  0  0  0  0  0  0  0  0  0  0  0
    4.6812   16.0391   16.0576 C   0  0  0  0  0  0  0  0  0  0  0  0
    5.9161   15.3076   15.6216 O   0  0  0  0  0  0  0  0  0  0  0  0
    7.0438   15.0974   16.5880 C   0  0  0  0  0  0  0  0  0  0  0  0
    8.4641   15.1755   16.1118 C   0  0  0  0  0  0  0  0  0  0  0  0
    8.7582   15.2887   14.6453 C   0  0  0  0  0  0  0  0  0  0  0  0
   10.1785   15.3669   14.1691 N   0  0  0  0  0  0  0  0  0  0  0  0
   11.2708   14.7054   14.9560 C   0  0  0  0  0  0  0  0  0  0  0  0
   12.6911   14.7836   14.4797 N   0  0  0  0  0  0  0  0  0  0  0  0
   13.4648   13.5254   14.2183 O   0  0  0  0  0  0  0  0  0  0  0  0
  1  2  1  0
  2  3  1  0
  2  4  1  0
  4  5  2  3
  5  6  1  0
  6  7  2  3
  7  8  1  0
  8  9  1  0
  8 10  1  0
 10 11  1  0
 11 12  1  0
 11 13  1  0
 13 14  1  0
 14 15  2  0
 14 16  1  0
  5 17  1  0
 17 18  1  0
 18 19  2  0
 19 20  1  0
 20 21  2  0
 21 22  1  0
 21 23  1  0
 23 24  2  0
 17 25  2  3
 25 26  1  0
 26 27  1  0
 27 28  2  3
 28 29  1  0
 29 30  1  0
 30 31  1  0
 31 32  2  0
 32 33  1  0
 33 34  1  0
 34 35  2  3
 35 36  1  0
 35 37  1  0
 28 38  1  0
 38 39  1  0
 39 40  2  3
 40 41  1  0
 41 42  1  0
 42 43  1  0
 42 44  1  0
 44 45  1  0
 45 46  1  0
 46 47  1  0
 47 48  1  0
 48 49  1  0
 48 50  1  0
 50 51  2  3
 51 52  1  0
 52 53  1  0
 53 54  1  0
 53 55  1  0
 55 56  1  0
 56 57  2  3
 57 58  1  0
 58 59  1  0
 59 60  1  0
 60 61  1  0
 61 62  2  3
 62 63  1  0
 62 64  1  0
 64 65  1  0
 65 66  1  0
 66 67  1  0
 66 68  1  0
 68 69  1  0
 69 70  1  0
 70 71  1  0
 71 72  1  0
 72 73  1  0
 73 74  1  0
 74 75  1  0
 75 76  1  0
 76 77  2  3
 77 78  1  0
 78 79  2  3
 79 80  1  0
 80 81  1  0
 24 18  1  0
 32 29  1  0
M  RAD  1  71   2
M  END
>  <docking_score>  (1) 
74.460999999999999

$$$$
