
     RDKit          3D

 21 22  0  0  0  0  0  0  0  0999 V2000
   19.4359   -3.5983   -1.5383 C   0  0  0  0  0  0  0  0  0  0  0  0
   19.6899   -2.1463   -1.5065 C   0  0  0  0  0  0  0  0  0  0  0  0
   19.2943   -1.1524   -2.2813 C   0  0  0  0  0  0  0  0  0  0  0  0
   18.4330   -1.2912   -3.4557 C   0  0  0  0  0  0  0  0  0  0  0  0
   17.5724   -2.2464   -3.7616 C   0  0  0  0  0  0  0  0  0  0  0  0
   16.8566   -2.1388   -4.9745 N   0  0  0  0  0  0  0  0  0  0  0  0
   15.5986   -1.6636   -5.0591 C   0  0  0  0  0  0  0  0  0  0  0  0
   14.7481   -1.1761   -3.9272 C   0  0  0  0  0  0  0  0  0  0  0  0
   15.2706   -1.7230   -6.3933 C   0  0  0  0  0  0  0  0  0  0  0  0
   16.3231   -2.2327   -7.1241 C   0  0  0  0  0  0  0  0  0  0  0  0
   17.3187   -2.4875   -6.1894 C   0  0  0  0  0  0  0  0  0  0  0  0
   18.6439   -3.0334   -6.4238 C   0  0  0  0  0  0  0  0  0  0  0  0
   18.8002   -4.3347   -6.4726 C   0  0  0  0  0  0  0  0  0  0  0  0
   17.6434   -5.1900   -6.2908 C   0  0  0  0  0  0  0  0  0  0  0  0
   17.6615   -6.1916   -5.4295 C   0  0  0  0  0  0  0  0  0  0  0  0
   16.1842   -7.1864   -5.2803 S   0  0  0  0  0  0  0  0  0  0  0  0
   14.7201   -6.1611   -5.1161 C   0  0  0  0  0  0  0  0  0  0  0  0
   18.8557   -6.4266   -4.6655 C   0  0  0  0  0  0  0  0  0  0  0  0
   18.8957   -6.8880   -3.5111 O   0  0  0  0  0  0  0  0  0  0  0  0
   17.2981   -3.4162   -2.9393 C   0  0  0  0  0  0  0  0  0  0  0  0
   18.0913   -3.9463   -2.0310 C   0  0  0  0  0  0  0  0  0  0  0  0
  1  2  1  0
  2  3  2  0
  3  4  1  0
  4  5  2  0
  5  6  1  0
  6  7  1  0
  7  8  1  0
  7  9  2  0
  9 10  1  0
 10 11  2  0
 11 12  1  0
 12 13  2  3
 13 14  1  0
 14 15  2  3
 15 16  1  0
 16 17  1  0
 15 18  1  0
 18 19  2  0
  5 20  1  0
 20 21  2  0
 21  1  1  0
 11  6  1  0
M  END
>  <docking_score>  (1) 
-4.6449999999999996

$$$$

     RDKit          3D

 21 22  0  0  0  0  0  0  0  0999 V2000
   16.7432   -2.1988   -2.3217 C   0  0  0  0  0  0  0  0  0  0  0  0
   15.6069   -1.2803   -2.5197 C   0  0  0  0  0  0  0  0  0  0  0  0
   14.7735   -1.0933   -3.5272 C   0  0  0  0  0  0  0  0  0  0  0  0
   14.8003   -1.8305   -4.7906 C   0  0  0  0  0  0  0  0  0  0  0  0
   15.3069   -3.0208   -5.0612 C   0  0  0  0  0  0  0  0  0  0  0  0
   15.1983   -3.5096   -6.3820 N   0  0  0  0  0  0  0  0  0  0  0  0
   14.2982   -4.4372   -6.7629 C   0  0  0  0  0  0  0  0  0  0  0  0
   13.2778   -5.1042   -5.8933 C   0  0  0  0  0  0  0  0  0  0  0  0
   14.5180   -4.6350   -8.1060 C   0  0  0  0  0  0  0  0  0  0  0  0
   15.5487   -3.8321   -8.5470 C   0  0  0  0  0  0  0  0  0  0  0  0
   15.9604   -3.1271   -7.4231 C   0  0  0  0  0  0  0  0  0  0  0  0
   17.0207   -2.1391   -7.3285 C   0  0  0  0  0  0  0  0  0  0  0  0
   18.2361   -2.5317   -7.0306 C   0  0  0  0  0  0  0  0  0  0  0  0
   18.4847   -3.9423   -6.8045 C   0  0  0  0  0  0  0  0  0  0  0  0
   19.2332   -4.3523   -5.7960 C   0  0  0  0  0  0  0  0  0  0  0  0
   19.4784   -6.1122   -5.6045 S   0  0  0  0  0  0  0  0  0  0  0  0
   17.9690   -6.9285   -5.0781 C   0  0  0  0  0  0  0  0  0  0  0  0
   19.8053   -3.3718   -4.9149 C   0  0  0  0  0  0  0  0  0  0  0  0
   19.9896   -3.5181   -3.6935 O   0  0  0  0  0  0  0  0  0  0  0  0
   15.9766   -3.8810   -4.0962 C   0  0  0  0  0  0  0  0  0  0  0  0
   16.5588   -3.5067   -2.9754 C   0  0  0  0  0  0  0  0  0  0  0  0
  1  2  1  0
  2  3  2  0
  3  4  1  0
  4  5  2  0
  5  6  1  0
  6  7  1  0
  7  8  1  0
  7  9  2  0
  9 10  1  0
 10 11  2  0
 11 12  1  0
 12 13  2  3
 13 14  1  0
 14 15  2  3
 15 16  1  0
 16 17  1  0
 15 18  1  0
 18 19  2  0
  5 20  1  0
 20 21  2  0
 21  1  1  0
 11  6  1  0
M  END
>  <docking_score>  (2) 
-4.4349999999999996

$$$$

     RDKit          3D

 21 22  0  0  0  0  0  0  0  0999 V2000
   15.7419   -1.2542   -2.9232 C   0  0  0  0  0  0  0  0  0  0  0  0
   14.5080   -0.8833   -3.6399 C   0  0  0  0  0  0  0  0  0  0  0  0
   14.0062   -1.2505   -4.8052 C   0  0  0  0  0  0  0  0  0  0  0  0
   14.6285   -2.1990   -5.7291 C   0  0  0  0  0  0  0  0  0  0  0  0
   15.5121   -3.1522   -5.4898 C   0  0  0  0  0  0  0  0  0  0  0  0
   15.9578   -3.9390   -6.5750 N   0  0  0  0  0  0  0  0  0  0  0  0
   16.7893   -3.4858   -7.5337 C   0  0  0  0  0  0  0  0  0  0  0  0
   17.3793   -2.1129   -7.6308 C   0  0  0  0  0  0  0  0  0  0  0  0
   16.9753   -4.5444   -8.3916 C   0  0  0  0  0  0  0  0  0  0  0  0
   16.2608   -5.6423   -7.9610 C   0  0  0  0  0  0  0  0  0  0  0  0
   15.6232   -5.2229   -6.8003 C   0  0  0  0  0  0  0  0  0  0  0  0
   14.7397   -5.9905   -5.9403 C   0  0  0  0  0  0  0  0  0  0  0  0
   15.2586   -6.8279   -5.0745 C   0  0  0  0  0  0  0  0  0  0  0  0
   16.7007   -6.9621   -5.0021 C   0  0  0  0  0  0  0  0  0  0  0  0
   17.2905   -8.1272   -5.2022 C   0  0  0  0  0  0  0  0  0  0  0  0
   19.0732   -8.1865   -5.0907 S   0  0  0  0  0  0  0  0  0  0  0  0
   19.8392   -7.0834   -6.2815 C   0  0  0  0  0  0  0  0  0  0  0  0
   16.4762   -9.2743   -5.4959 C   0  0  0  0  0  0  0  0  0  0  0  0
   16.9011  -10.4077   -5.7820 O   0  0  0  0  0  0  0  0  0  0  0  0
   16.0709   -3.4620   -4.1817 C   0  0  0  0  0  0  0  0  0  0  0  0
   16.1492   -2.6531   -3.1449 C   0  0  0  0  0  0  0  0  0  0  0  0
  1  2  1  0
  2  3  2  0
  3  4  1  0
  4  5  2  0
  5  6  1  0
  6  7  1  0
  7  8  1  0
  7  9  2  0
  9 10  1  0
 10 11  2  0
 11 12  1  0
 12 13  2  3
 13 14  1  0
 14 15  2  3
 15 16  1  0
 16 17  1  0
 15 18  1  0
 18 19  2  0
  5 20  1  0
 20 21  2  0
 21  1  1  0
 11  6  1  0
M  END
>  <docking_score>  (3) 
-4.0149999999999997

$$$$
