
     RDKit          3D

 43 48  0  0  0  0  0  0  0  0999 V2000
    9.2705   15.3050   12.9504 C   0  0  0  0  0  0  0  0  0  0  0  0
    9.9803   14.5889   14.0804 C   0  0  0  0  0  3  0  0  0  0  0  0
   10.6778   15.5135   15.0219 C   0  0  0  0  0  0  0  0  0  0  0  0
   12.1179   15.7481   14.5515 C   0  0  0  0  0  3  0  0  0  0  0  0
   12.8221   14.4451   14.5510 C   0  0  0  0  0  0  0  0  0  0  0  0
   14.0275   14.3874   14.6456 O   0  0  0  0  0  0  0  0  0  0  0  0
   12.0443   13.1948   14.4332 C   0  0  0  0  0  0  0  0  0  0  0  0
   10.8486   13.4594   13.5770 C   0  0  2  0  0  0  0  0  0  0  0  0
   11.3395   13.8171   12.1803 C   0  0  0  0  0  0  0  0  0  0  0  0
   10.1553   13.7777   11.2555 C   0  0  0  0  0  3  0  0  0  0  0  0
    8.9050   14.2917   11.9190 C   0  0  2  0  0  0  0  0  0  0  0  0
    7.8782   14.7884   10.9228 C   0  0  2  0  0  0  0  0  0  0  0  0
    7.2528   16.0741   11.4839 C   0  0  0  0  0  0  0  0  0  0  0  0
    6.3104   15.1483   12.2642 C   0  0  1  0  0  0  0  0  0  0  0  0
    4.9440   15.7253   12.3877 C   0  0  0  0  0  2  0  0  0  0  0  0
    6.5327   14.1250   11.1962 C   0  0  1  0  0  0  0  0  0  0  0  0
    5.6087   14.1436   10.0274 C   0  0  2  0  0  0  0  0  0  0  0  0
    6.3716   14.2958    8.7118 C   0  0  0  0  0  0  0  0  0  0  0  0
    7.2651   15.5209    8.7873 C   0  0  0  0  0  3  0  0  0  0  0  0
    7.4037   15.9931    7.4814 O   0  0  0  0  0  0  0  0  0  0  0  0
    6.7633   12.7115   11.6880 C   0  0  0  0  0  3  0  0  0  0  0  0
    5.5575   11.8343   11.4317 C   0  0  0  0  0  0  0  0  0  0  0  0
    4.3083   12.4084   12.0700 C   0  0  0  0  0  2  0  0  0  0  0  0
    3.1253   12.1721   11.1562 C   0  0  0  0  0  3  0  0  0  0  0  0
    3.1348   13.1297    9.9865 C   0  0  0  0  0  3  0  0  0  0  0  0
    3.1692   14.5611   10.4181 C   0  0  0  0  0  0  0  0  0  0  0  0
    4.5198   15.1687   10.1129 C   0  0  2  0  0  0  0  0  0  0  0  0
    4.4729   16.0745    8.9057 C   0  0  0  0  0  2  0  0  0  0  0  0
    3.3910   15.6451    7.9587 C   0  0  0  0  0  0  0  0  0  0  0  0
    3.9438   15.0380    6.8310 O   0  0  0  0  0  0  0  0  0  0  0  0
    3.2439   13.9311    6.4190 C   0  0  0  0  0  3  0  0  0  0  0  0
    4.0944   12.9084    5.6937 C   0  0  2  0  0  0  0  0  0  0  0  0
    4.2709   13.3444    4.2955 C   0  0  0  0  0  3  0  0  0  0  0  0
    3.2563   14.0854    3.7547 O   0  0  0  0  0  0  0  0  0  0  0  0
    4.9854   12.4387    3.3805 C   0  0  1  0  0  0  0  0  0  0  0  0
    6.3967   12.8454    3.0489 C   0  0  0  0  0  3  0  0  0  0  0  0
    7.0553   11.5488    2.6401 C   0  0  0  0  0  0  0  0  0  0  0  0
    6.0999   10.4901    2.9026 N   0  0  0  0  0  0  0  0  0  0  0  0
    5.1334   11.0257    3.8167 C   0  0  2  0  0  0  0  0  0  0  0  0
    3.9202   10.3691    3.7812 O   0  0  0  0  0  0  0  0  0  0  0  0
    3.2793   10.5130    4.9820 N   0  0  0  0  0  0  0  0  0  0  0  0
    3.4800   11.5901    5.8860 C   0  0  0  0  0  0  0  0  0  0  0  0
    3.0603   11.3946    7.0727 O   0  0  0  0  0  0  0  0  0  0  0  0
  1  2  1  0
  2  3  1  0
  3  4  1  0
  4  5  1  0
  5  6  2  0
  5  7  1  0
  8  7  1  1
  8  9  1  0
  9 10  1  0
 11 10  1  6
 11 12  1  0
 12 13  1  1
 13 14  1  0
 14 15  1  6
 14 16  1  0
 16 17  1  0
 17 18  1  6
 18 19  1  0
 19 20  1  0
 16 21  1  1
 21 22  1  0
 22 23  1  0
 23 24  1  0
 24 25  1  0
 25 26  1  0
 26 27  1  0
 27 28  1  6
 28 29  1  0
 29 30  1  0
 30 31  1  0
 32 31  1  1
 32 33  1  0
 33 34  1  0
 33 35  1  0
 35 36  1  1
 36 37  1  0
 37 38  1  0
 39 38  1  6
 39 40  1  0
 40 41  1  0
 41 42  1  0
 42 43  2  0
 11  1  1  0
  8  2  1  0
 16 12  1  0
 27 17  1  0
 42 32  1  0
 39 35  1  0
M  RAD  8   2   2   4   2  10   2  15   3  19   2  21   2  23   3  24   2
M  RAD  5  25   2  28   3  31   2  33   2  36   2
M  END
>  <docking_score>  (1) 
-4.5

$$$$
