
     RDKit          3D

 22 22  0  0  0  0  0  0  0  0999 V2000
    4.0447   13.6925    3.6642 C   0  0  0  0  0  0  0  0  0  0  0  0
    4.9484   12.5884    3.2826 C   0  0  0  0  0  0  0  0  0  0  0  0
    5.1258   11.5515    4.0768 C   0  0  0  0  0  0  0  0  0  0  0  0
    4.4655   11.4077    5.3623 C   0  0  0  0  0  0  0  0  0  0  0  0
    4.9463   11.8465    6.4841 C   0  0  0  0  0  0  0  0  0  0  0  0
    4.2478   11.6835    7.7775 C   0  0  0  0  0  0  0  0  0  0  0  0
    3.5984   12.8233    8.4721 C   0  0  0  0  0  0  0  0  0  0  0  0
    4.1785   10.5002    8.3648 C   0  0  0  0  0  0  0  0  0  0  0  0
    3.4804   10.3363    9.6578 C   0  0  0  0  0  0  0  0  0  0  0  0
    4.1696   10.1884   10.7517 C   0  0  0  0  0  0  0  0  0  0  0  0
    3.5615   10.0217   12.0614 C   0  0  0  0  0  0  0  0  0  0  0  0
    2.5222   11.0002   12.4686 C   0  0  0  0  0  0  0  0  0  0  0  0
    3.9052    9.0514   12.8640 C   0  0  0  0  0  0  0  0  0  0  0  0
    3.2785    8.9149   14.1623 C   0  0  0  0  0  0  0  0  0  0  0  0
    3.6951    9.6691   15.0942 O   0  0  0  0  0  0  0  0  0  0  0  0
    2.2649    7.9986   14.3802 O   0  0  0  0  0  0  0  0  0  0  0  0
    6.0471   10.4837    3.6270 C   0  0  0  0  0  0  0  0  0  0  0  0
    6.2796    9.4830    4.7229 C   0  0  0  0  0  0  0  0  0  0  0  0
    5.5185    9.7647    2.4033 C   0  0  0  0  0  0  0  0  0  0  0  0
    7.3384   11.1628    3.2230 C   0  0  0  0  0  0  0  0  0  0  0  0
    7.1280   12.3046    2.2937 C   0  0  0  0  0  0  0  0  0  0  0  0
    5.6798   12.6199    1.9928 C   0  0  0  0  0  0  0  0  0  0  0  0
  1  2  1  0
  2  3  2  0
  3  4  1  0
  4  5  2  0
  5  6  1  0
  6  7  1  0
  6  8  2  0
  8  9  1  0
  9 10  2  0
 10 11  1  0
 11 12  1  0
 11 13  2  0
 13 14  1  0
 14 15  2  0
 14 16  1  0
  3 17  1  0
 17 18  1  0
 17 19  1  0
 17 20  1  0
 20 21  1  0
 21 22  1  0
 22  2  1  0
M  END
>  <docking_score>  (1) 
-3.9969999999999999

$$$$

     RDKit          3D

 22 22  0  0  0  0  0  0  0  0999 V2000
    5.2507   10.6333   12.4689 C   0  0  0  0  0  0  0  0  0  0  0  0
    5.4483   12.0941   12.5596 C   0  0  0  0  0  0  0  0  0  0  0  0
    5.3658   12.8577   11.4884 C   0  0  0  0  0  0  0  0  0  0  0  0
    5.0809   12.3432   10.1606 C   0  0  0  0  0  0  0  0  0  0  0  0
    3.9347   11.8586    9.7948 C   0  0  0  0  0  0  0  0  0  0  0  0
    3.6771   11.3421    8.4331 C   0  0  0  0  0  0  0  0  0  0  0  0
    2.3129   10.9839    7.9707 C   0  0  0  0  0  0  0  0  0  0  0  0
    4.6681   11.1807    7.5719 C   0  0  0  0  0  0  0  0  0  0  0  0
    4.4114   10.6644    6.2104 C   0  0  0  0  0  0  0  0  0  0  0  0
    4.7137    9.4330    5.9171 C   0  0  0  0  0  0  0  0  0  0  0  0
    4.4938    8.8486    4.6045 C   0  0  0  0  0  0  0  0  0  0  0  0
    5.3014    9.3703    3.4734 C   0  0  0  0  0  0  0  0  0  0  0  0
    3.6211    7.8979    4.4091 C   0  0  0  0  0  0  0  0  0  0  0  0
    3.4276    7.3382    3.0876 C   0  0  0  0  0  0  0  0  0  0  0  0
    4.1362    6.3347    2.7689 O   0  0  0  0  0  0  0  0  0  0  0  0
    2.5066    7.8752    2.2056 O   0  0  0  0  0  0  0  0  0  0  0  0
    5.5759   14.3134   11.6572 C   0  0  0  0  0  0  0  0  0  0  0  0
    5.6376   15.0017   10.3234 C   0  0  0  0  0  0  0  0  0  0  0  0
    4.4810   14.9456   12.4910 C   0  0  0  0  0  0  0  0  0  0  0  0
    6.8723   14.4817   12.4205 C   0  0  0  0  0  0  0  0  0  0  0  0
    6.9355   13.6466   13.6493 C   0  0  0  0  0  0  0  0  0  0  0  0
    5.7447   12.7388   13.8619 C   0  0  0  0  0  0  0  0  0  0  0  0
  1  2  1  0
  2  3  2  0
  3  4  1  0
  4  5  2  0
  5  6  1  0
  6  7  1  0
  6  8  2  0
  8  9  1  0
  9 10  2  0
 10 11  1  0
 11 12  1  0
 11 13  2  0
 13 14  1  0
 14 15  2  0
 14 16  1  0
  3 17  1  0
 17 18  1  0
 17 19  1  0
 17 20  1  0
 20 21  1  0
 21 22  1  0
 22  2  1  0
M  END
>  <docking_score>  (2) 
-2.7919999999999998

$$$$

     RDKit          3D

 22 22  0  0  0  0  0  0  0  0999 V2000
    4.6904    6.4019    5.2436 C   0  0  0  0  0  0  0  0  0  0  0  0
    4.1783    7.4558    4.3446 C   0  0  0  0  0  0  0  0  0  0  0  0
    3.6248    8.5500    4.8281 C   0  0  0  0  0  0  0  0  0  0  0  0
    3.4742    8.8082    6.2493 C   0  0  0  0  0  0  0  0  0  0  0  0
    4.2918    9.5294    6.9518 C   0  0  0  0  0  0  0  0  0  0  0  0
    4.1095    9.7732    8.3992 C   0  0  0  0  0  0  0  0  0  0  0  0
    3.7421    8.6869    9.3416 C   0  0  0  0  0  0  0  0  0  0  0  0
    4.2703   10.9840    8.9070 C   0  0  0  0  0  0  0  0  0  0  0  0
    4.0883   11.2286   10.3537 C   0  0  0  0  0  0  0  0  0  0  0  0
    5.1184   11.2070   11.1488 C   0  0  0  0  0  0  0  0  0  0  0  0
    5.0256   11.4370   12.5810 C   0  0  0  0  0  0  0  0  0  0  0  0
    6.2847   11.4101   13.3667 C   0  0  0  0  0  0  0  0  0  0  0  0
    3.8835   11.6608   13.1720 C   0  0  0  0  0  0  0  0  0  0  0  0
    3.8274   11.8862   14.6014 C   0  0  0  0  0  0  0  0  0  0  0  0
    2.8546   11.3744   15.2357 O   0  0  0  0  0  0  0  0  0  0  0  0
    4.7960   12.6301   15.2519 O   0  0  0  0  0  0  0  0  0  0  0  0
    3.1344    9.5621    3.8654 C   0  0  0  0  0  0  0  0  0  0  0  0
    2.3680   10.6435    4.5724 C   0  0  0  0  0  0  0  0  0  0  0  0
    4.2696   10.1894    3.0833 C   0  0  0  0  0  0  0  0  0  0  0  0
    2.2579    8.8304    2.8714 C   0  0  0  0  0  0  0  0  0  0  0  0
    2.9100    7.6215    2.3018 C   0  0  0  0  0  0  0  0  0  0  0  0
    4.2753    7.3082    2.8721 C   0  0  0  0  0  0  0  0  0  0  0  0
  1  2  1  0
  2  3  2  0
  3  4  1  0
  4  5  2  0
  5  6  1  0
  6  7  1  0
  6  8  2  0
  8  9  1  0
  9 10  2  0
 10 11  1  0
 11 12  1  0
 11 13  2  0
 13 14  1  0
 14 15  2  0
 14 16  1  0
  3 17  1  0
 17 18  1  0
 17 19  1  0
 17 20  1  0
 20 21  1  0
 21 22  1  0
 22  2  1  0
M  END
>  <docking_score>  (3) 
-2.3719999999999999

$$$$
