
     RDKit          3D

 29 29  0  0  0  0  0  0  0  0999 V2000
   13.4638   -2.4432   -4.8156 C   0  0  0  0  0  0  0  0  0  0  0  0
   14.1914   -3.5899   -5.4831 C   0  0  1  0  0  0  0  0  0  0  0  0
   13.5381   -4.9099   -5.1585 C   0  0  0  0  0  0  0  0  0  0  0  0
   14.1636   -3.3816   -6.9774 C   0  0  0  0  0  0  0  0  0  0  0  0
   15.4944   -3.8176   -7.5817 C   0  0  0  0  0  0  0  0  0  0  0  0
   15.4067   -5.2890   -7.9519 C   0  0  0  0  0  0  0  0  0  0  0  0
   16.6617   -6.0413   -7.5212 C   0  0  1  0  0  0  0  0  0  0  0  0
   16.2691   -7.0189   -6.4454 C   0  0  0  0  0  0  0  0  0  0  0  0
   17.2092   -6.7210   -8.7399 C   0  0  0  0  0  3  0  0  0  0  0  0
   18.4640   -7.4969   -8.4936 C   0  0  0  0  0  0  0  0  0  0  0  0
   18.7491   -7.7553   -7.0451 C   0  0  0  0  0  0  0  0  0  0  0  0
   19.7344   -6.7202   -6.5698 C   0  0  2  0  0  0  0  0  0  0  0  0
   20.6659   -6.3448   -7.6938 C   0  0  0  0  0  0  0  0  0  0  0  0
   20.5294   -7.2754   -5.4222 C   0  0  0  0  0  0  0  0  0  0  0  0
   19.7748   -7.2065   -4.1178 C   0  0  1  0  0  0  0  0  0  0  0  0
   19.9350   -8.5412   -3.4237 C   0  0  0  0  0  2  0  0  0  0  0  0
   20.3994   -6.1465   -3.2452 C   0  0  1  0  0  0  0  0  0  0  0  0
   21.3765   -5.2807   -3.9907 C   0  0  0  0  0  0  0  0  0  0  0  0
   19.3648   -5.3444   -2.4885 C   0  0  0  0  0  0  0  0  0  0  0  0
   19.3223   -3.9337   -3.0382 C   0  0  0  0  0  0  0  0  0  0  0  0
   19.1026   -2.9819   -1.8649 C   0  0  0  0  0  0  0  0  0  0  0  0
   18.3512   -1.8202   -2.3237 C   0  0  0  0  0  0  0  0  0  0  0  0
   19.0446   -0.7438   -3.0165 C   0  0  0  0  0  0  0  0  0  0  0  0
   16.9295   -1.7220   -2.0513 C   0  0  0  0  0  0  0  0  0  0  0  0
   16.1762   -1.0855   -3.0273 O   0  0  0  0  0  0  0  0  0  0  0  0
   15.7145   -1.9463   -4.0075 C   0  0  0  0  0  0  0  0  0  0  0  0
   14.4607   -1.3270   -4.6004 C   0  0  0  0  0  0  0  0  0  0  0  0
   14.7228   -0.6713   -5.9312 C   0  0  0  0  0  2  0  0  0  0  0  0
   13.8786   -0.3064   -3.6557 C   0  0  0  0  0  2  0  0  0  0  0  0
  1  2  1  0
  2  3  1  6
  2  4  1  0
  4  5  1  0
  5  6  1  0
  6  7  1  0
  7  8  1  1
  7  9  1  0
  9 10  1  0
 10 11  1  0
 11 12  1  0
 12 13  1  6
 12 14  1  0
 14 15  1  0
 15 16  1  1
 15 17  1  0
 17 18  1  6
 17 19  1  0
 19 20  1  0
 20 21  1  0
 21 22  1  0
 22 23  1  0
 22 24  1  0
 24 25  1  0
 25 26  1  0
 26 27  1  0
 27 28  1  0
 27 29  1  0
 27  1  1  0
M  RAD  4   9   2  16   3  28   3  29   3
M  END
>  <docking_score>  (1) 
-4.2969999999999997

$$$$

     RDKit          3D

 29 29  0  0  0  0  0  0  0  0999 V2000
    2.9536   12.3225   10.7224 C   0  0  0  0  0  0  0  0  0  0  0  0
    3.4835   13.1468    9.5692 C   0  0  1  0  0  0  0  0  0  0  0  0
    2.5326   14.2634    9.2178 C   0  0  0  0  0  0  0  0  0  0  0  0
    4.8139   13.7396    9.9640 C   0  0  0  0  0  0  0  0  0  0  0  0
    5.7577   13.7272    8.7659 C   0  0  0  0  0  0  0  0  0  0  0  0
    5.5930   15.0284    7.9981 C   0  0  0  0  0  0  0  0  0  0  0  0
    5.5234   14.7765    6.4954 C   0  0  1  0  0  0  0  0  0  0  0  0
    4.1424   15.1510    6.0267 C   0  0  0  0  0  0  0  0  0  0  0  0
    6.5908   15.6136    5.8574 C   0  0  0  0  0  3  0  0  0  0  0  0
    6.6718   15.4695    4.3709 C   0  0  0  0  0  0  0  0  0  0  0  0
    5.4735   14.8144    3.7536 C   0  0  0  0  0  0  0  0  0  0  0  0
    5.7929   13.3579    3.5420 C   0  0  2  0  0  0  0  0  0  0  0  0
    7.2592   13.1941    3.2338 C   0  0  0  0  0  0  0  0  0  0  0  0
    4.9763   12.8272    2.3980 C   0  0  0  0  0  0  0  0  0  0  0  0
    3.5641   12.4935    2.8102 C   0  0  1  0  0  0  0  0  0  0  0  0
    2.6337   13.0559    1.7579 C   0  0  0  0  0  2  0  0  0  0  0  0
    3.3997   10.9942    2.8281 C   0  0  1  0  0  0  0  0  0  0  0  0
    4.7094   10.2640    2.7209 C   0  0  0  0  0  0  0  0  0  0  0  0
    2.5604   10.5238    3.9946 C   0  0  0  0  0  0  0  0  0  0  0  0
    3.4394    9.7793    4.9779 C   0  0  0  0  0  0  0  0  0  0  0  0
    2.6307    8.6104    5.5349 C   0  0  0  0  0  0  0  0  0  0  0  0
    3.0594    8.3384    6.9013 C   0  0  0  0  0  0  0  0  0  0  0  0
    4.2686    7.5618    7.1339 C   0  0  0  0  0  0  0  0  0  0  0  0
    2.2594    8.8038    8.0187 C   0  0  0  0  0  0  0  0  0  0  0  0
    2.9712    9.1711    9.1517 O   0  0  0  0  0  0  0  0  0  0  0  0
    3.3563   10.5002    9.1466 C   0  0  0  0  0  0  0  0  0  0  0  0
    3.5251   10.9286   10.5942 C   0  0  0  0  0  0  0  0  0  0  0  0
    4.9722   10.9766   11.0099 C   0  0  0  0  0  2  0  0  0  0  0  0
    2.7807    9.9922   11.5119 C   0  0  0  0  0  2  0  0  0  0  0  0
  1  2  1  0
  2  3  1  1
  2  4  1  0
  4  5  1  0
  5  6  1  0
  6  7  1  0
  7  8  1  6
  7  9  1  0
  9 10  1  0
 10 11  1  0
 11 12  1  0
 12 13  1  6
 12 14  1  0
 14 15  1  0
 15 16  1  6
 15 17  1  0
 17 18  1  1
 17 19  1  0
 19 20  1  0
 20 21  1  0
 21 22  1  0
 22 23  1  0
 22 24  1  0
 24 25  1  0
 25 26  1  0
 26 27  1  0
 27 28  1  0
 27 29  1  0
 27  1  1  0
M  RAD  4   9   2  16   3  28   3  29   3
M  END
>  <docking_score>  (2) 
-3.7799999999999998

$$$$

     RDKit          3D

 29 29  0  0  0  0  0  0  0  0999 V2000
    3.4386   12.9756   10.4241 C   0  0  0  0  0  0  0  0  0  0  0  0
    4.4864   13.8065    9.7160 C   0  0  1  0  0  0  0  0  0  0  0  0
    3.9311   15.1480    9.3079 C   0  0  0  0  0  0  0  0  0  0  0  0
    5.6525   14.0202   10.6496 C   0  0  0  0  0  0  0  0  0  0  0  0
    6.9582   13.9563    9.8638 C   0  0  0  0  0  0  0  0  0  0  0  0
    7.3063   15.3531    9.3762 C   0  0  0  0  0  0  0  0  0  0  0  0
    7.7599   15.3313    7.9201 C   0  0  1  0  0  0  0  0  0  0  0  0
    6.7335   16.0717    7.1043 C   0  0  0  0  0  0  0  0  0  0  0  0
    9.1096   15.9815    7.8683 C   0  0  0  0  0  3  0  0  0  0  0  0
    9.7124   16.0271    6.5002 C   0  0  0  0  0  0  0  0  0  0  0  0
    8.7394   15.7535    5.3935 C   0  0  0  0  0  0  0  0  0  0  0  0
    8.8713   14.3055    5.0012 C   0  0  2  0  0  0  0  0  0  0  0  0
   10.2989   13.8548    5.1763 C   0  0  0  0  0  0  0  0  0  0  0  0
    8.4633   14.1367    3.5651 C   0  0  0  0  0  0  0  0  0  0  0  0
    6.9650   14.0812    3.3994 C   0  0  1  0  0  0  0  0  0  0  0  0
    6.5980   14.9795    2.2385 C   0  0  0  0  0  2  0  0  0  0  0  0
    6.5623   12.6711    3.0463 C   0  0  1  0  0  0  0  0  0  0  0  0
    7.6793   11.6827    3.2346 C   0  0  0  0  0  0  0  0  0  0  0  0
    5.2848   12.2500    3.7369 C   0  0  0  0  0  0  0  0  0  0  0  0
    5.6007   11.1974    4.7791 C   0  0  0  0  0  0  0  0  0  0  0  0
    4.4631   10.1792    4.7739 C   0  0  0  0  0  0  0  0  0  0  0  0
    4.3024    9.6326    6.1156 C   0  0  0  0  0  0  0  0  0  0  0  0
    5.1937    8.5761    6.5725 C   0  0  0  0  0  0  0  0  0  0  0  0
    3.2324   10.1113    6.9706 C   0  0  0  0  0  0  0  0  0  0  0  0
    3.5219   10.1482    8.3270 O   0  0  0  0  0  0  0  0  0  0  0  0
    4.0935   11.3421    8.7303 C   0  0  0  0  0  0  0  0  0  0  0  0
    3.7800   11.5189   10.2061 C   0  0  0  0  0  0  0  0  0  0  0  0
    4.9558   11.1779   11.0839 C   0  0  0  0  0  2  0  0  0  0  0  0
    2.6053   10.6610   10.6025 C   0  0  0  0  0  2  0  0  0  0  0  0
  1  2  1  0
  2  3  1  1
  2  4  1  0
  4  5  1  0
  5  6  1  0
  6  7  1  0
  7  8  1  6
  7  9  1  0
  9 10  1  0
 10 11  1  0
 11 12  1  0
 12 13  1  6
 12 14  1  0
 14 15  1  0
 15 16  1  6
 15 17  1  0
 17 18  1  1
 17 19  1  0
 19 20  1  0
 20 21  1  0
 21 22  1  0
 22 23  1  0
 22 24  1  0
 24 25  1  0
 25 26  1  0
 26 27  1  0
 27 28  1  0
 27 29  1  0
 27  1  1  0
M  RAD  4   9   2  16   3  28   3  29   3
M  END
>  <docking_score>  (3) 
-2.8399999999999999

$$$$
