
     RDKit          3D

 25 24  0  0  0  0  0  0  0  0999 V2000
   14.5464    0.2241   -5.8830 C   0  0  0  0  0  0  0  0  0  0  0  0
   15.0518   -0.9621   -5.1319 C   0  0  0  0  0  0  0  0  0  0  0  0
   13.9248   -1.7241   -4.4837 C   0  0  0  0  0  0  0  0  0  0  0  0
   15.9151   -1.8824   -5.9652 C   0  0  0  0  0  0  0  0  0  0  0  0
   17.1989   -1.2498   -6.3833 C   0  0  0  0  0  0  0  0  0  0  0  0
   17.8878   -0.5130   -5.2581 C   0  0  0  0  0  0  0  0  0  0  0  0
   19.0550   -1.3590   -4.8001 C   0  0  1  0  0  0  0  0  0  0  0  0
   19.8946   -0.6462   -3.7715 C   0  0  0  0  0  0  0  0  0  0  0  0
   18.5596   -2.7013   -4.2683 C   0  0  0  0  0  3  0  0  0  0  0  0
   19.1791   -2.9543   -2.9109 C   0  0  0  0  0  0  0  0  0  0  0  0
   18.5253   -4.2079   -2.3414 C   0  0  0  0  0  0  0  0  0  0  0  0
   17.0362   -4.0366   -2.4736 C   0  0  2  0  0  0  0  0  0  0  0  0
   16.2807   -4.3774   -1.2258 C   0  0  0  0  0  0  0  0  0  0  0  0
   16.4969   -4.7601   -3.6889 C   0  0  0  0  0  0  0  0  0  0  0  0
   17.4036   -5.9464   -3.9563 C   0  0  0  0  0  0  0  0  0  0  0  0
   17.9543   -5.8736   -5.3335 C   0  0  0  0  0  0  0  0  0  0  0  0
   19.2651   -5.7258   -5.5634 C   0  0  0  0  0  0  0  0  0  0  0  0
   19.7384   -5.6613   -6.9663 C   0  0  0  0  0  3  0  0  0  0  0  0
   18.5770   -5.9019   -7.9088 C   0  0  0  0  0  0  0  0  0  0  0  0
   18.8918   -7.1417   -8.7113 C   0  0  1  0  0  0  0  0  0  0  0  0
   20.1654   -7.5683   -8.3157 O   0  0  0  0  0  0  0  0  0  0  0  0
   17.8498   -8.1811   -8.3587 C   0  0  0  0  0  0  0  0  0  0  0  0
   18.3965   -9.1882   -7.3820 C   0  0  0  0  0  0  0  0  0  0  0  0
   17.3032   -9.7905   -6.5227 C   0  0  0  0  0  0  0  0  0  0  0  0
   17.5174   -9.3080   -5.1024 C   0  0  0  0  0  0  0  0  0  0  0  0
  1  2  1  0
  2  3  1  0
  2  4  1  0
  4  5  1  0
  5  6  1  0
  6  7  1  0
  7  8  1  1
  7  9  1  0
  9 10  1  0
 10 11  1  0
 11 12  1  0
 12 13  1  1
 12 14  1  0
 14 15  1  0
 15 16  1  0
 16 17  2  3
 17 18  1  0
 18 19  1  0
 19 20  1  0
 20 21  1  1
 20 22  1  0
 22 23  1  0
 23 24  1  0
 24 25  1  0
M  RAD  2   9   2  18   2
M  END
>  <docking_score>  (1) 
-2.4660000000000002

$$$$

     RDKit          3D

 25 24  0  0  0  0  0  0  0  0999 V2000
    4.5122   12.3025   17.3697 C   0  0  0  0  0  0  0  0  0  0  0  0
    3.7437   12.8916   16.2344 C   0  0  0  0  0  0  0  0  0  0  0  0
    3.2342   14.2693   16.5709 C   0  0  0  0  0  0  0  0  0  0  0  0
    4.5072   12.9035   14.9292 C   0  0  0  0  0  0  0  0  0  0  0  0
    3.8615   12.0713   13.8739 C   0  0  0  0  0  0  0  0  0  0  0  0
    4.8466   11.2156   13.1118 C   0  0  0  0  0  0  0  0  0  0  0  0
    4.0714   10.0956   12.4540 C   0  0  1  0  0  0  0  0  0  0  0  0
    2.5869   10.2390   12.6703 C   0  0  0  0  0  0  0  0  0  0  0  0
    4.4040   10.0243   10.9659 C   0  0  0  0  0  3  0  0  0  0  0  0
    3.1423   10.2645   10.1654 C   0  0  0  0  0  0  0  0  0  0  0  0
    3.4693    9.9704    8.7060 C   0  0  0  0  0  0  0  0  0  0  0  0
    2.9929    8.5737    8.4123 C   0  0  2  0  0  0  0  0  0  0  0  0
    2.8948    7.7057    9.6293 C   0  0  0  0  0  0  0  0  0  0  0  0
    3.8031    7.9282    7.3086 C   0  0  0  0  0  0  0  0  0  0  0  0
    3.6909    8.8117    6.0806 C   0  0  0  0  0  0  0  0  0  0  0  0
    4.7965    9.8027    6.0563 C   0  0  0  0  0  0  0  0  0  0  0  0
    4.7311   10.9162    5.3155 C   0  0  0  0  0  0  0  0  0  0  0  0
    5.8755   11.8575    5.3438 C   0  0  0  0  0  3  0  0  0  0  0  0
    6.7840   11.5928    4.1608 C   0  0  0  0  0  0  0  0  0  0  0  0
    7.8900   12.6203    4.1980 C   0  0  1  0  0  0  0  0  0  0  0  0
    7.9167   13.2331    2.9393 O   0  0  0  0  0  0  0  0  0  0  0  0
    7.5326   13.6257    5.2711 C   0  0  0  0  0  0  0  0  0  0  0  0
    6.9547   14.8793    4.6697 C   0  0  0  0  0  0  0  0  0  0  0  0
    6.5440   15.8771    5.7338 C   0  0  0  0  0  0  0  0  0  0  0  0
    6.5243   15.1491    7.0626 C   0  0  0  0  0  0  0  0  0  0  0  0
  1  2  1  0
  2  3  1  0
  2  4  1  0
  4  5  1  0
  5  6  1  0
  6  7  1  0
  7  8  1  6
  7  9  1  0
  9 10  1  0
 10 11  1  0
 11 12  1  0
 12 13  1  1
 12 14  1  0
 14 15  1  0
 15 16  1  0
 16 17  2  3
 17 18  1  0
 18 19  1  0
 19 20  1  0
 20 21  1  6
 20 22  1  0
 22 23  1  0
 23 24  1  0
 24 25  1  0
M  RAD  2   9   2  18   2
M  END
>  <docking_score>  (2) 
-1.1950000000000001

$$$$

     RDKit          3D

 25 24  0  0  0  0  0  0  0  0999 V2000
    7.9527   12.0694    4.0339 C   0  0  0  0  0  0  0  0  0  0  0  0
    6.6095   11.4219    3.9777 C   0  0  0  0  0  0  0  0  0  0  0  0
    6.6741   10.0789    3.2971 C   0  0  0  0  0  0  0  0  0  0  0  0
    5.9352   11.3105    5.3265 C   0  0  0  0  0  0  0  0  0  0  0  0
    4.9708   12.4181    5.5842 C   0  0  0  0  0  0  0  0  0  0  0  0
    4.4062   12.3952    6.9857 C   0  0  0  0  0  0  0  0  0  0  0  0
    4.4067   13.8157    7.5056 C   0  0  1  0  0  0  0  0  0  0  0  0
    3.1386   14.1395    8.2528 C   0  0  0  0  0  0  0  0  0  0  0  0
    5.6347   14.0595    8.3788 C   0  0  0  0  0  3  0  0  0  0  0  0
    5.6040   13.1049    9.5528 C   0  0  0  0  0  0  0  0  0  0  0  0
    6.8834   13.3274   10.3508 C   0  0  0  0  0  0  0  0  0  0  0  0
    6.4940   13.4421   11.7997 C   0  0  2  0  0  0  0  0  0  0  0  0
    6.5360   12.1385   12.5365 C   0  0  0  0  0  0  0  0  0  0  0  0
    5.1695   14.1554   11.9668 C   0  0  0  0  0  0  0  0  0  0  0  0
    5.4387   15.6464   11.8907 C   0  0  0  0  0  0  0  0  0  0  0  0
    6.3045   16.0717   13.0197 C   0  0  0  0  0  0  0  0  0  0  0  0
    7.5488   15.6010   13.1719 C   0  0  0  0  0  0  0  0  0  0  0  0
    8.3518   16.0732   14.3247 C   0  0  0  0  0  3  0  0  0  0  0  0
    9.8271   15.9202   14.0164 C   0  0  0  0  0  0  0  0  0  0  0  0
   10.3527   14.7844   14.8613 C   0  0  1  0  0  0  0  0  0  0  0  0
    9.4084   13.7532   14.7875 O   0  0  0  0  0  0  0  0  0  0  0  0
   11.6678   14.3452   14.2547 C   0  0  0  0  0  0  0  0  0  0  0  0
   11.5295   13.0143   13.5642 C   0  0  0  0  0  0  0  0  0  0  0  0
   12.2808   12.9816   12.2485 C   0  0  0  0  0  0  0  0  0  0  0  0
   13.2739   14.1260   12.2583 C   0  0  0  0  0  0  0  0  0  0  0  0
  1  2  1  0
  2  3  1  0
  2  4  1  0
  4  5  1  0
  5  6  1  0
  6  7  1  0
  7  8  1  1
  7  9  1  0
  9 10  1  0
 10 11  1  0
 11 12  1  0
 12 13  1  6
 12 14  1  0
 14 15  1  0
 15 16  1  0
 16 17  2  3
 17 18  1  0
 18 19  1  0
 19 20  1  0
 20 21  1  6
 20 22  1  0
 22 23  1  0
 23 24  1  0
 24 25  1  0
M  RAD  2   9   2  18   2
M  END
>  <docking_score>  (3) 
-1.0920000000000001

$$$$
