
     RDKit          3D

 20 19  0  0  0  0  0  0  0  0999 V2000
   21.2723    0.2720   -3.6144 O   0  0  0  0  0  0  0  0  0  0  0  0
   20.0421    0.2844   -4.2661 C   0  0  0  0  0  0  0  0  0  0  0  0
   19.7378   -1.1369   -4.6614 C   0  0  0  0  0  3  0  0  0  0  0  0
   19.5413   -1.9994   -3.4946 N   0  0  0  0  0  0  0  0  0  0  0  0
   18.3132   -2.7400   -3.7385 C   0  0  2  0  0  0  0  0  0  0  0  0
   17.5242   -2.6690   -2.4314 C   0  0  0  0  0  0  0  0  0  0  0  0
   16.4312   -1.7956   -2.5504 O   0  0  0  0  0  0  0  0  0  0  0  0
   18.6880   -4.1622   -4.0359 C   0  0  1  0  0  0  0  0  0  0  0  0
   19.9502   -4.5318   -3.6445 O   0  0  0  0  0  0  0  0  0  0  0  0
   17.6050   -5.1460   -3.7629 C   0  0  2  0  0  0  0  0  0  0  0  0
   18.0206   -6.0778   -2.8438 O   0  0  0  0  0  0  0  0  0  0  0  0
   17.1208   -5.7184   -5.0247 C   0  0  0  0  0  0  0  0  0  0  0  0
   15.9140   -5.4099   -5.4669 C   0  0  0  0  0  0  0  0  0  0  0  0
   15.0430   -4.5006   -4.7147 C   0  0  0  0  0  0  0  0  0  0  0  0
   14.4043   -3.5941   -5.5216 O   0  0  0  0  0  0  0  0  0  0  0  0
   15.0768   -3.4676   -6.7253 C   0  0  0  0  0  3  0  0  0  0  0  0
   15.5192   -2.0272   -6.8695 C   0  0  2  0  0  0  0  0  0  0  0  0
   16.9894   -1.8981   -7.1407 C   0  0  0  0  0  0  0  0  0  0  0  0
   15.0701   -1.2154   -5.7248 C   0  0  0  0  0  0  0  0  0  0  0  0
   15.0466   -0.0021   -5.7903 O   0  0  0  0  0  0  0  0  0  0  0  0
  1  2  1  0
  2  3  1  0
  3  4  1  0
  4  5  1  0
  5  6  1  1
  6  7  1  0
  5  8  1  0
  8  9  1  1
  8 10  1  0
 10 11  1  1
 10 12  1  0
 12 13  2  3
 13 14  1  0
 14 15  1  0
 15 16  1  0
 16 17  1  0
 17 18  1  1
 17 19  1  0
 19 20  2  0
M  RAD  2   3   2  16   2
M  END
>  <docking_score>  (1) 
-3.0659999999999998

$$$$

     RDKit          3D

 20 19  0  0  0  0  0  0  0  0999 V2000
   13.7322   -1.0093   -4.5879 O   0  0  0  0  0  0  0  0  0  0  0  0
   14.9925   -1.5967   -4.5180 C   0  0  0  0  0  0  0  0  0  0  0  0
   14.8139   -3.0618   -4.8189 C   0  0  0  0  0  3  0  0  0  0  0  0
   14.9640   -3.3496   -6.2466 N   0  0  0  0  0  0  0  0  0  0  0  0
   15.9656   -4.3997   -6.3468 C   0  0  2  0  0  0  0  0  0  0  0  0
   15.7283   -5.0660   -7.7017 C   0  0  0  0  0  0  0  0  0  0  0  0
   15.7372   -4.1175   -8.7371 O   0  0  0  0  0  0  0  0  0  0  0  0
   15.7119   -5.3810   -5.2402 C   0  0  1  0  0  0  0  0  0  0  0  0
   14.8587   -6.4097   -5.5508 O   0  0  0  0  0  0  0  0  0  0  0  0
   16.9278   -5.7517   -4.4659 C   0  0  2  0  0  0  0  0  0  0  0  0
   17.2795   -7.0554   -4.7158 O   0  0  0  0  0  0  0  0  0  0  0  0
   16.7281   -5.4431   -3.0449 C   0  0  0  0  0  0  0  0  0  0  0  0
   17.5379   -4.5944   -2.4358 C   0  0  0  0  0  0  0  0  0  0  0  0
   18.6407   -3.9513   -3.1580 C   0  0  0  0  0  0  0  0  0  0  0  0
   18.5716   -2.5823   -3.1154 O   0  0  0  0  0  0  0  0  0  0  0  0
   19.8058   -2.0312   -3.4162 C   0  0  0  0  0  3  0  0  0  0  0  0
   19.6021   -0.5668   -3.7409 C   0  0  2  0  0  0  0  0  0  0  0  0
   19.4231   -0.3196   -5.2102 C   0  0  0  0  0  0  0  0  0  0  0  0
   20.6609    0.2637   -3.1408 C   0  0  0  0  0  0  0  0  0  0  0  0
   20.8475    1.4047   -3.5152 O   0  0  0  0  0  0  0  0  0  0  0  0
  1  2  1  0
  2  3  1  0
  3  4  1  0
  4  5  1  0
  5  6  1  6
  6  7  1  0
  5  8  1  0
  8  9  1  6
  8 10  1  0
 10 11  1  1
 10 12  1  0
 12 13  2  3
 13 14  1  0
 14 15  1  0
 15 16  1  0
 16 17  1  0
 17 18  1  6
 17 19  1  0
 19 20  2  0
M  RAD  2   3   2  16   2
M  END
>  <docking_score>  (2) 
-2.9740000000000002

$$$$

     RDKit          3D

 20 19  0  0  0  0  0  0  0  0999 V2000
   13.8261   -0.1103   -4.3279 O   0  0  0  0  0  0  0  0  0  0  0  0
   14.8568   -0.7917   -4.9696 C   0  0  0  0  0  0  0  0  0  0  0  0
   15.0349   -2.1025   -4.2490 C   0  0  0  0  0  3  0  0  0  0  0  0
   15.7692   -1.9409   -2.9926 N   0  0  0  0  0  0  0  0  0  0  0  0
   17.0492   -2.6059   -3.1812 C   0  0  2  0  0  0  0  0  0  0  0  0
   17.2101   -3.5359   -1.9790 C   0  0  0  0  0  0  0  0  0  0  0  0
   16.2237   -4.5353   -1.9805 O   0  0  0  0  0  0  0  0  0  0  0  0
   18.1185   -1.5533   -3.1635 C   0  0  1  0  0  0  0  0  0  0  0  0
   18.6164   -1.2419   -1.9233 O   0  0  0  0  0  0  0  0  0  0  0  0
   19.1211   -1.6871   -4.2553 C   0  0  2  0  0  0  0  0  0  0  0  0
   19.8682   -0.5403   -4.3670 O   0  0  0  0  0  0  0  0  0  0  0  0
   18.4548   -2.0956   -5.4977 C   0  0  0  0  0  0  0  0  0  0  0  0
   18.9200   -3.1232   -6.1866 C   0  0  0  0  0  0  0  0  0  0  0  0
   20.0984   -3.8678   -5.7304 C   0  0  0  0  0  0  0  0  0  0  0  0
   19.9396   -5.2255   -5.8406 O   0  0  0  0  0  0  0  0  0  0  0  0
   18.8325   -5.5163   -6.6197 C   0  0  0  0  0  3  0  0  0  0  0  0
   18.1078   -6.6874   -5.9915 C   0  0  2  0  0  0  0  0  0  0  0  0
   17.4221   -7.5548   -7.0059 C   0  0  0  0  0  0  0  0  0  0  0  0
   17.2093   -6.2405   -4.9126 C   0  0  0  0  0  0  0  0  0  0  0  0
   16.1510   -6.8019   -4.7082 O   0  0  0  0  0  0  0  0  0  0  0  0
  1  2  1  0
  2  3  1  0
  3  4  1  0
  4  5  1  0
  5  6  1  1
  6  7  1  0
  5  8  1  0
  8  9  1  1
  8 10  1  0
 10 11  1  6
 10 12  1  0
 12 13  2  3
 13 14  1  0
 14 15  1  0
 15 16  1  0
 16 17  1  0
 17 18  1  6
 17 19  1  0
 19 20  2  0
M  RAD  2   3   2  16   2
M  END
>  <docking_score>  (3) 
-2.9009999999999998

$$$$
