
     RDKit          3D

 16 16  0  0  0  0  0  0  0  0999 V2000
   17.8260   -1.3960   -2.0661 O   0  0  0  0  0  0  0  0  0  0  0  0
   16.6262   -1.9993   -2.3589 C   0  0  0  0  0  0  0  0  0  0  0  0
   16.7070   -3.0396   -3.4250 C   0  0  1  0  0  0  0  0  0  0  0  0
   16.8421   -4.3648   -2.8734 N   0  0  0  0  0  0  0  0  0  0  0  0
   16.8198   -5.3903   -3.8542 C   0  0  2  0  0  0  0  0  0  0  0  0
   17.8798   -6.4278   -3.7196 C   0  0  0  0  0  0  0  0  0  0  0  0
   19.0386   -5.7808   -3.2348 O   0  0  0  0  0  0  0  0  0  0  0  0
   16.6983   -4.8101   -5.2286 C   0  0  1  0  0  0  0  0  0  0  0  0
   16.7535   -5.7595   -6.2324 O   0  0  0  0  0  0  0  0  0  0  0  0
   15.3486   -4.0783   -5.2509 C   0  0  2  0  0  0  0  0  0  0  0  0
   14.9777   -3.7253   -6.5302 O   0  0  0  0  0  0  0  0  0  0  0  0
   15.5037   -2.8936   -4.3239 C   0  0  2  0  0  0  0  0  0  0  0  0
   15.7160   -1.7752   -5.1235 O   0  0  0  0  0  0  0  0  0  0  0  0
   14.5480   -1.0178   -5.2134 C   0  0  0  0  0  0  0  0  0  0  0  0
   14.1215   -0.5596   -3.9952 O   0  0  0  0  0  0  0  0  0  0  0  0
   13.4582    0.5704   -4.1704 O   0  0  0  0  0  0  0  0  0  0  0  0
  1  2  1  0
  3  2  1  1
  3  4  1  0
  4  5  1  0
  5  6  1  6
  6  7  1  0
  5  8  1  0
  8  9  1  6
  8 10  1  0
 10 11  1  6
 10 12  1  0
 12 13  1  6
 13 14  1  0
 14 15  1  0
 15 16  1  0
 12  3  1  0
M  END
>  <docking_score>  (1) 
-3.782

$$$$

     RDKit          3D

 16 16  0  0  0  0  0  0  0  0999 V2000
   14.9378   -0.8294   -5.3450 O   0  0  0  0  0  0  0  0  0  0  0  0
   15.2249   -1.4491   -4.1521 C   0  0  0  0  0  0  0  0  0  0  0  0
   15.3618   -2.9314   -4.2486 C   0  0  1  0  0  0  0  0  0  0  0  0
   14.8910   -3.4331   -5.5156 N   0  0  0  0  0  0  0  0  0  0  0  0
   15.0991   -4.8268   -5.6843 C   0  0  2  0  0  0  0  0  0  0  0  0
   13.9308   -5.5900   -6.2048 C   0  0  0  0  0  0  0  0  0  0  0  0
   12.7660   -4.9208   -5.7671 O   0  0  0  0  0  0  0  0  0  0  0  0
   15.7286   -5.4227   -4.4641 C   0  0  1  0  0  0  0  0  0  0  0  0
   15.8810   -6.7950   -4.5393 O   0  0  0  0  0  0  0  0  0  0  0  0
   17.0941   -4.7345   -4.3250 C   0  0  2  0  0  0  0  0  0  0  0  0
   17.8986   -5.3721   -3.4058 O   0  0  0  0  0  0  0  0  0  0  0  0
   16.7988   -3.2954   -3.9661 C   0  0  2  0  0  0  0  0  0  0  0  0
   16.9976   -3.1681   -2.5951 O   0  0  0  0  0  0  0  0  0  0  0  0
   17.9294   -2.1635   -2.3341 C   0  0  0  0  0  0  0  0  0  0  0  0
   18.8534   -2.0281   -3.3360 O   0  0  0  0  0  0  0  0  0  0  0  0
   19.3186   -0.7907   -3.3259 O   0  0  0  0  0  0  0  0  0  0  0  0
  1  2  1  0
  3  2  1  6
  3  4  1  0
  4  5  1  0
  5  6  1  1
  6  7  1  0
  5  8  1  0
  8  9  1  6
  8 10  1  0
 10 11  1  1
 10 12  1  0
 12 13  1  1
 13 14  1  0
 14 15  1  0
 15 16  1  0
 12  3  1  0
M  END
>  <docking_score>  (2) 
-3.754

$$$$

     RDKit          3D

 16 16  0  0  0  0  0  0  0  0999 V2000
   16.1001   -5.9897   -6.4238 O   0  0  0  0  0  0  0  0  0  0  0  0
   16.9046   -4.8757   -6.4577 C   0  0  0  0  0  0  0  0  0  0  0  0
   16.6312   -3.8889   -5.3729 C   0  0  1  0  0  0  0  0  0  0  0  0
   15.4140   -3.1533   -5.6099 N   0  0  0  0  0  0  0  0  0  0  0  0
   15.0674   -2.2769   -4.5488 C   0  0  2  0  0  0  0  0  0  0  0  0
   14.6704   -0.9012   -4.9586 C   0  0  0  0  0  0  0  0  0  0  0  0
   13.2891   -0.7684   -4.6928 O   0  0  0  0  0  0  0  0  0  0  0  0
   16.0969   -2.3220   -3.4631 C   0  0  1  0  0  0  0  0  0  0  0  0
   15.8534   -1.4265   -2.4380 O   0  0  0  0  0  0  0  0  0  0  0  0
   16.0793   -3.7641   -2.9361 C   0  0  2  0  0  0  0  0  0  0  0  0
   16.7802   -3.8875   -1.7561 O   0  0  0  0  0  0  0  0  0  0  0  0
   16.6317   -4.6208   -4.0532 C   0  0  2  0  0  0  0  0  0  0  0  0
   17.9565   -4.9017   -3.7347 O   0  0  0  0  0  0  0  0  0  0  0  0
   18.1096   -6.2616   -3.4643 C   0  0  0  0  0  0  0  0  0  0  0  0
   19.2578   -6.7801   -4.0015 O   0  0  0  0  0  0  0  0  0  0  0  0
   19.3398   -8.0606   -3.6835 O   0  0  0  0  0  0  0  0  0  0  0  0
  1  2  1  0
  3  2  1  6
  3  4  1  0
  4  5  1  0
  5  6  1  6
  6  7  1  0
  5  8  1  0
  8  9  1  1
  8 10  1  0
 10 11  1  1
 10 12  1  0
 12 13  1  1
 13 14  1  0
 14 15  1  0
 15 16  1  0
 12  3  1  0
M  END
>  <docking_score>  (3) 
-3.6859999999999999

$$$$
