
     RDKit          3D

 30 29  0  0  0  0  0  0  0  0999 V2000
    3.2089   15.2138    8.1711 C   0  0  0  0  0  0  0  0  0  0  0  0
    3.5801   13.7415    8.1244 C   0  0  0  0  0  0  0  0  0  0  0  0
    2.3827   12.9087    7.7002 C   0  0  0  0  0  0  0  0  0  0  0  0
    4.6324   13.5828    7.0613 C   0  0  0  0  0  0  0  0  0  0  0  0
    4.3299   12.2911    6.3102 C   0  0  0  0  0  0  0  0  0  0  0  0
    4.2909   12.6010    4.8313 C   0  0  0  0  0  0  0  0  0  0  0  0
    5.1174   13.8621    4.5502 C   0  0  1  0  0  0  0  0  0  0  0  0
    6.2527   13.9829    5.5422 C   0  0  0  0  0  0  0  0  0  0  0  0
    5.6981   13.6486    3.1461 C   0  0  2  0  0  0  0  0  0  0  0  0
    4.5169   13.3996    2.2334 C   0  0  0  0  0  2  0  0  0  0  0  0
    6.6039   12.4471    3.2331 C   0  0  0  0  0  0  0  0  0  0  0  0
    6.2086   11.3394    2.2979 C   0  0  1  0  0  0  0  0  0  0  0  0
    7.0833   11.2335    1.0856 C   0  0  0  0  0  0  0  0  0  0  0  0
    6.0255   10.0207    3.0060 C   0  0  0  0  0  0  0  0  0  0  0  0
    4.5389    9.7313    3.0368 C   0  0  0  0  0  3  0  0  0  0  0  0
    4.1172    9.0354    4.2091 N   0  0  0  0  0  0  0  0  0  0  0  0
    2.7592    9.3408    4.6098 C   0  0  0  0  0  3  0  0  0  0  0  0
    2.5123    8.5792    5.9172 C   0  0  0  0  0  0  0  0  0  0  0  0
    3.9070    8.3272    6.4999 C   0  0  2  0  0  0  0  0  0  0  0  0
    4.5101    7.1970    5.6673 C   0  0  0  0  0  0  0  0  0  0  0  0
    3.6888    7.8639    7.9236 C   0  0  0  0  0  0  0  0  0  0  0  0
    2.8696    8.8197    8.7254 C   0  0  1  0  0  0  0  0  0  0  0  0
    2.2588    8.2304    9.9542 C   0  0  0  0  0  0  0  0  0  0  0  0
    3.4963   10.0402    8.9531 O   0  0  0  0  0  0  0  0  0  0  0  0
    3.9050   10.0224   10.2102 O   0  0  0  0  0  0  0  0  0  0  0  0
    3.8869   11.3191   10.7161 C   0  0  0  0  0  0  0  0  0  0  0  0
    4.7574   11.3327   11.9513 C   0  0  0  0  0  0  0  0  0  0  0  0
    6.1289   11.7976   11.5363 C   0  0  0  0  0  0  0  0  0  0  0  0
    6.8074   12.3749   12.7749 C   0  0  0  0  0  0  0  0  0  0  0  0
    6.3949   13.6889   12.8941 F   0  0  0  0  0  0  0  0  0  0  0  0
  1  2  1  0
  2  3  1  0
  2  4  1  0
  4  5  1  0
  5  6  1  0
  6  7  1  0
  7  8  1  1
  7  9  1  0
  9 10  1  6
  9 11  1  0
 11 12  1  0
 12 13  1  6
 12 14  1  0
 14 15  1  0
 15 16  1  0
 16 17  1  0
 17 18  1  0
 18 19  1  0
 19 20  1  6
 19 21  1  0
 21 22  1  0
 22 23  1  1
 22 24  1  0
 24 25  1  0
 25 26  1  0
 26 27  1  0
 27 28  1  0
 28 29  1  0
 29 30  1  0
M  RAD  3  10   3  15   2  17   2
M  END
>  <docking_score>  (1) 
-2.2080000000000002

$$$$

     RDKit          3D

 30 29  0  0  0  0  0  0  0  0999 V2000
    4.8185    7.9019    2.2263 C   0  0  0  0  0  0  0  0  0  0  0  0
    3.8411    7.4569    3.3007 C   0  0  0  0  0  0  0  0  0  0  0  0
    2.4934    7.1257    2.6836 C   0  0  0  0  0  0  0  0  0  0  0  0
    4.3836    6.1861    3.8951 C   0  0  0  0  0  0  0  0  0  0  0  0
    5.0465    6.5492    5.2191 C   0  0  0  0  0  0  0  0  0  0  0  0
    4.4472    7.8476    5.7085 C   0  0  0  0  0  0  0  0  0  0  0  0
    2.9292    7.8258    5.4900 C   0  0  1  0  0  0  0  0  0  0  0  0
    2.2584    6.9480    6.5229 C   0  0  0  0  0  0  0  0  0  0  0  0
    2.4796    9.2782    5.6970 C   0  0  2  0  0  0  0  0  0  0  0  0
    2.3548    9.8831    4.3155 C   0  0  0  0  0  2  0  0  0  0  0  0
    3.5566    9.9503    6.5094 C   0  0  0  0  0  0  0  0  0  0  0  0
    3.0131   10.8693    7.5668 C   0  0  1  0  0  0  0  0  0  0  0  0
    2.3909   10.1521    8.7264 C   0  0  0  0  0  0  0  0  0  0  0  0
    4.0104   11.9173    7.9922 C   0  0  0  0  0  0  0  0  0  0  0  0
    3.6330   13.2058    7.2908 C   0  0  0  0  0  3  0  0  0  0  0  0
    4.0319   13.2480    5.9213 N   0  0  0  0  0  0  0  0  0  0  0  0
    4.8781   14.3778    5.5967 C   0  0  0  0  0  3  0  0  0  0  0  0
    6.3212   13.9214    5.8405 C   0  0  0  0  0  0  0  0  0  0  0  0
    7.0089   15.1171    6.5081 C   0  0  2  0  0  0  0  0  0  0  0  0
    5.8867   16.0693    6.9185 C   0  0  0  0  0  0  0  0  0  0  0  0
    7.8678   15.7569    5.4393 C   0  0  0  0  0  0  0  0  0  0  0  0
    7.8347   15.0124    4.1462 C   0  0  1  0  0  0  0  0  0  0  0  0
    7.2710   15.7877    3.0010 C   0  0  0  0  0  0  0  0  0  0  0  0
    9.0286   14.3680    3.8403 O   0  0  0  0  0  0  0  0  0  0  0  0
    8.7602   13.5318    2.8522 O   0  0  0  0  0  0  0  0  0  0  0  0
    7.6022   12.8213    3.1553 C   0  0  0  0  0  0  0  0  0  0  0  0
    7.9916   11.7072    4.0994 C   0  0  0  0  0  0  0  0  0  0  0  0
    7.2488   10.4683    3.6719 C   0  0  0  0  0  0  0  0  0  0  0  0
    6.2725   10.1151    4.7899 C   0  0  0  0  0  0  0  0  0  0  0  0
    6.7771   10.6510    5.9600 F   0  0  0  0  0  0  0  0  0  0  0  0
  1  2  1  0
  2  3  1  0
  2  4  1  0
  4  5  1  0
  5  6  1  0
  6  7  1  0
  7  8  1  1
  7  9  1  0
  9 10  1  6
  9 11  1  0
 11 12  1  0
 12 13  1  1
 12 14  1  0
 14 15  1  0
 15 16  1  0
 16 17  1  0
 17 18  1  0
 18 19  1  0
 19 20  1  6
 19 21  1  0
 21 22  1  0
 22 23  1  6
 22 24  1  0
 24 25  1  0
 25 26  1  0
 26 27  1  0
 27 28  1  0
 28 29  1  0
 29 30  1  0
M  RAD  3  10   3  15   2  17   2
M  END
>  <docking_score>  (2) 
-1.5349999999999999

$$$$

     RDKit          3D

 30 29  0  0  0  0  0  0  0  0999 V2000
   19.1709   -1.5376   -2.1829 C   0  0  0  0  0  0  0  0  0  0  0  0
   20.2826   -2.5281   -1.8816 C   0  0  0  0  0  0  0  0  0  0  0  0
   20.5036   -2.6333   -0.3825 C   0  0  0  0  0  0  0  0  0  0  0  0
   19.8170   -3.8764   -2.3592 C   0  0  0  0  0  0  0  0  0  0  0  0
   20.9069   -4.4405   -3.2636 C   0  0  0  0  0  0  0  0  0  0  0  0
   21.0850   -5.9049   -2.9343 C   0  0  0  0  0  0  0  0  0  0  0  0
   21.3653   -6.6892   -4.2223 C   0  0  1  0  0  0  0  0  0  0  0  0
   21.1337   -8.1676   -4.0026 C   0  0  0  0  0  0  0  0  0  0  0  0
   20.3387   -6.1651   -5.2350 C   0  0  2  0  0  0  0  0  0  0  0  0
   18.9839   -6.3084   -4.5762 C   0  0  0  0  0  2  0  0  0  0  0  0
   20.4619   -7.0332   -6.4610 C   0  0  0  0  0  0  0  0  0  0  0  0
   20.7477   -6.2520   -7.7124 C   0  0  1  0  0  0  0  0  0  0  0  0
   19.5945   -6.2022   -8.6682 C   0  0  0  0  0  0  0  0  0  0  0  0
   21.3310   -4.8913   -7.4257 C   0  0  0  0  0  0  0  0  0  0  0  0
   20.1759   -3.9134   -7.3608 C   0  0  0  0  0  3  0  0  0  0  0  0
   19.5000   -3.7453   -8.6062 N   0  0  0  0  0  0  0  0  0  0  0  0
   18.2239   -3.0701   -8.4887 C   0  0  0  0  0  3  0  0  0  0  0  0
   17.1564   -4.1692   -8.4354 C   0  0  0  0  0  0  0  0  0  0  0  0
   15.9672   -3.5334   -7.7074 C   0  0  2  0  0  0  0  0  0  0  0  0
   15.2776   -2.6381   -8.7357 C   0  0  0  0  0  0  0  0  0  0  0  0
   16.5572   -2.6907   -6.5978 C   0  0  0  0  0  0  0  0  0  0  0  0
   15.7577   -1.4626   -6.3146 C   0  0  1  0  0  0  0  0  0  0  0  0
   14.2789   -1.6566   -6.3918 C   0  0  0  0  0  0  0  0  0  0  0  0
   16.1646   -0.7803   -5.1731 O   0  0  0  0  0  0  0  0  0  0  0  0
   15.1920   -0.9173   -4.2883 O   0  0  0  0  0  0  0  0  0  0  0  0
   15.4125   -2.0703   -3.5402 C   0  0  0  0  0  0  0  0  0  0  0  0
   16.4591   -2.8843   -4.2653 C   0  0  0  0  0  0  0  0  0  0  0  0
   17.3394   -3.5247   -3.2240 C   0  0  0  0  0  0  0  0  0  0  0  0
   16.6782   -4.8373   -2.8146 C   0  0  0  0  0  0  0  0  0  0  0  0
   15.3118   -4.6617   -2.9287 F   0  0  0  0  0  0  0  0  0  0  0  0
  1  2  1  0
  2  3  1  0
  2  4  1  0
  4  5  1  0
  5  6  1  0
  6  7  1  0
  7  8  1  1
  7  9  1  0
  9 10  1  1
  9 11  1  0
 11 12  1  0
 12 13  1  1
 12 14  1  0
 14 15  1  0
 15 16  1  0
 16 17  1  0
 17 18  1  0
 18 19  1  0
 19 20  1  6
 19 21  1  0
 21 22  1  0
 22 23  1  1
 22 24  1  0
 24 25  1  0
 25 26  1  0
 26 27  1  0
 27 28  1  0
 28 29  1  0
 29 30  1  0
M  RAD  3  10   3  15   2  17   2
M  END
>  <docking_score>  (3) 
0.59399999999999997

$$$$
