
     RDKit          3D

 61 62  0  0  0  0  0  0  0  0999 V2000
    4.5251   14.5647    4.3812 C   0  0  0  0  0  0  0  0  0  0  0  0
    4.2424   13.8758    3.0790 O   0  0  0  0  0  0  0  0  0  0  0  0
    4.3667   12.4187    2.7455 C   0  0  0  0  0  3  0  0  0  0  0  0
    4.8044   11.2904    3.6318 O   0  0  0  0  0  0  0  0  0  0  0  0
    5.2259   11.3407    5.0705 C   0  0  0  0  0  0  0  0  0  0  0  0
    5.6103   10.0263    5.6823 C   0  0  0  0  0  0  0  0  0  0  0  0
    5.3138   12.5317    5.9782 C   0  0  0  0  0  3  0  0  0  0  0  0
    5.0020   13.9664    5.6715 C   0  0  0  0  0  0  0  0  0  0  0  0
    5.1920   14.9305    6.8048 N   0  0  0  0  0  0  0  0  0  0  0  0
    6.5708   15.3921    7.1734 C   0  0  0  0  0  3  0  0  0  0  0  0
    7.6975   14.4048    7.2478 C   0  0  0  0  0  0  0  0  0  0  0  0
    8.2480   13.0383    6.9656 C   0  0  0  0  0  0  0  0  0  0  0  0
    9.0985   14.0610    7.6588 C   0  0  0  0  0  0  0  0  0  0  0  0
   10.3985   14.4530    8.2963 C   0  0  0  0  0  0  0  0  0  0  0  0
    8.0747   11.6588    6.4024 C   0  0  0  0  0  0  0  0  0  0  0  0
    6.8925   10.8277    6.8044 O   0  0  0  0  0  0  0  0  0  0  0  0
    7.0673    9.3669    7.0968 C   0  0  0  0  0  0  0  0  0  0  0  0
    8.0995    8.5716    6.3538 O   0  0  0  0  0  0  0  0  0  0  0  0
    7.6965    7.3411    5.5967 C   0  0  0  0  0  3  0  0  0  0  0  0
    7.2854    6.1044    6.3394 C   0  0  0  0  0  0  0  0  0  0  0  0
    8.3260    5.1334    6.8131 O   0  0  0  0  0  0  0  0  0  0  0  0
    5.8339    5.8387    6.6085 C   0  0  0  0  0  3  0  0  0  0  0  0
    4.7849    6.4273    5.7123 O   0  0  0  0  0  0  0  0  0  0  0  0
    3.4292    6.7592    6.2618 C   0  0  0  0  0  3  0  0  0  0  0  0
    3.3071    7.4951    7.5632 O   0  0  0  0  0  0  0  0  0  0  0  0
    3.8878    6.9067    8.8149 C   0  0  0  0  0  0  0  0  0  0  0  0
    4.0419    5.4202    8.9433 C   0  0  0  0  0  0  0  0  0  0  0  0
    3.3200    4.5069    7.9973 C   0  0  0  0  0  2  0  0  0  0  0  0
    4.3144    7.8048    9.9380 C   0  0  0  0  0  0  0  0  0  0  0  0
    3.7263    9.1789   10.0642 C   0  0  0  0  0  0  0  0  0  0  0  0
    2.3312    9.4449    9.5816 O   0  0  0  0  0  0  0  0  0  0  0  0
    4.5334   10.2871   10.6730 C   0  0  0  0  0  3  0  0  0  0  0  0
    4.8708   10.2537   12.1342 C   0  0  0  0  0  0  0  0  0  0  0  0
    3.9242    9.6169   13.1081 C   0  0  0  0  0  0  0  0  0  0  0  0
    3.9825    9.9852   14.5609 C   0  0  0  0  0  3  0  0  0  0  0  0
    2.7138   10.1654   15.3407 C   0  0  0  0  0  2  0  0  0  0  0  0
    5.3290    7.3287   10.9349 S   0  0  0  0  0  0  0  0  0  0  0  0
    5.2150    7.7363   12.3740 O   0  0  0  0  0  0  0  0  0  0  0  0
    4.8728    9.1535   12.7271 C   0  0  0  0  0  3  0  0  0  0  0  0
    3.8776    9.4364   13.8132 O   0  0  0  0  0  0  0  0  0  0  0  0
    3.4500   10.8473   14.0898 C   0  0  0  0  0  3  0  0  0  0  0  0
    4.4536   11.8555   14.5658 C   0  0  0  0  0  0  0  0  0  0  0  0
    4.2256   12.5904   15.8533 C   0  0  0  0  0  3  0  0  0  0  0  0
    3.0760   12.2121   16.7394 C   0  0  0  0  0  3  0  0  0  0  0  0
    2.5058   10.8260   16.6777 O   0  0  0  0  0  0  0  0  0  0  0  0
    2.7281    9.9771   15.4612 C   0  0  0  0  0  3  0  0  0  0  0  0
    3.1892    8.5576   15.6113 C   0  0  0  0  0  0  0  0  0  0  0  0
    4.3924    8.0760   14.8562 O   0  0  0  0  0  0  0  0  0  0  0  0
    2.4470    7.6198   16.5166 C   0  0  0  0  0  0  0  0  0  0  0  0
    3.0060    7.2810   17.8667 O   0  0  0  0  0  0  0  0  0  0  0  0
    5.6850   12.1288   13.7540 C   0  0  0  0  0  0  0  0  0  0  0  0
    6.5893   10.9989   13.3597 C   0  0  0  0  0  3  0  0  0  0  0  0
    7.5309   11.1603   12.2033 O   0  0  0  0  0  0  0  0  0  0  0  0
    7.8074   12.5253   11.6462 C   0  0  0  0  0  0  0  0  0  0  0  0
    9.2206   13.0129   11.5228 C   0  0  0  0  0  3  0  0  0  0  0  0
    9.7026   14.1416   12.3852 O   0  0  0  0  0  0  0  0  0  0  0  0
   10.7093   15.1166   11.8508 O   0  0  0  0  0  0  0  0  0  0  0  0
   12.1273   15.0735   12.3386 C   0  0  0  0  0  3  0  0  0  0  0  0
   13.0865   14.0714   11.7678 C   0  0  0  0  0  2  0  0  0  0  0  0
    6.0121   13.5318   13.3366 C   0  0  0  0  0  0  0  0  0  0  0  0
    5.7866   13.9642   11.9181 O   0  0  0  0  0  0  0  0  0  0  0  0
  1  2  1  0
  2  3  1  0
  3  4  1  0
  4  5  1  0
  5  6  1  0
  5  7  1  0
  7  8  1  0
  8  9  1  0
  9 10  1  0
 11 10  1  0
 11 12  1  0
 12 13  1  0
 13 14  1  0
 12 15  1  0
 15 16  1  0
 16 17  1  0
 17 18  1  0
 18 19  1  0
 19 20  1  0
 20 21  1  0
 20 22  1  0
 22 23  1  0
 23 24  1  0
 24 25  1  0
 25 26  1  0
 26 27  1  0
 27 28  1  0
 26 29  1  0
 29 30  1  0
 30 31  1  0
 30 32  1  0
 32 33  1  0
 33 34  1  0
 34 35  1  0
 35 36  1  0
 29 37  1  0
 37 38  1  0
 38 39  1  0
 39 40  1  0
 40 41  1  0
 42 41  1  0
 42 43  1  0
 43 44  1  0
 44 45  1  0
 45 46  1  0
 46 47  1  0
 47 48  1  0
 47 49  1  0
 49 50  1  0
 42 51  1  0
 51 52  1  0
 52 53  1  0
 53 54  1  0
 54 55  1  0
 55 56  1  0
 56 57  1  0
 57 58  1  0
 58 59  1  0
 51 60  1  0
 60 61  2  0
  8  1  1  0
 13 11  1  0
M  RAD  8   3   2   7   2  10   2  19   2  22   2  24   2  28   3  32   2
M  RAD  8  35   2  36   3  39   2  41   2  43   2  44   2  46   2  52   2
M  RAD  3  55   2  58   2  59   3
M  END
>  <docking_score>  (1) 
18.457000000000001

$$$$
