
     RDKit          3D

 26 27  0  0  0  0  0  0  0  0999 V2000
   16.2596   -7.0481   -5.1814 C   0  0  0  0  0  0  0  0  0  0  0  0
   17.7278   -7.4059   -4.9736 C   0  0  1  0  0  0  0  0  0  0  0  0
   18.0815   -8.6087   -5.8382 C   0  0  0  0  0  0  0  0  0  0  0  0
   17.8179   -8.3634   -7.2915 C   0  0  2  0  0  0  0  0  0  0  0  0
   18.4646   -9.3982   -8.0026 O   0  0  0  0  0  0  0  0  0  0  0  0
   18.3855   -7.0508   -7.7867 C   0  0  2  0  0  0  0  0  0  0  0  0
   19.7371   -7.1244   -8.0629 O   0  0  0  0  0  0  0  0  0  0  0  0
   18.0796   -5.9037   -6.8504 C   0  0  1  0  0  0  0  0  0  0  0  0
   16.7362   -5.5810   -6.8590 O   0  0  0  0  0  0  0  0  0  0  0  0
   18.5825   -6.2577   -5.4657 C   0  0  1  0  0  0  0  0  0  0  0  0
   18.5086   -5.1343   -4.5765 N   0  0  0  0  0  0  0  0  0  0  0  0
   19.6721   -4.3087   -4.6619 C   0  0  0  0  0  3  0  0  0  0  0  0
   19.3421   -2.8648   -4.8499 C   0  0  0  0  0  0  0  0  0  0  0  0
   19.6112   -2.0887   -3.5868 C   0  0  1  0  0  0  0  0  0  0  0  0
   20.3924   -0.9647   -3.8548 O   0  0  0  0  0  0  0  0  0  0  0  0
   18.3257   -1.6247   -2.9786 C   0  0  0  0  0  3  0  0  0  0  0  0
   17.6493   -2.6835   -2.3742 O   0  0  0  0  0  0  0  0  0  0  0  0
   16.3362   -2.2828   -2.1732 C   0  0  1  0  0  0  0  0  0  0  0  0
   16.1616   -1.4424   -1.1011 O   0  0  0  0  0  0  0  0  0  0  0  0
   15.7904   -1.7122   -3.4623 C   0  0  2  0  0  0  0  0  0  0  0  0
   14.7336   -0.8394   -3.2239 O   0  0  0  0  0  0  0  0  0  0  0  0
   15.2929   -2.8261   -4.3907 C   0  0  1  0  0  0  0  0  0  0  0  0
   14.0818   -2.2543   -5.1163 C   0  0  0  0  0  0  0  0  0  0  0  0
   14.7412   -1.6887   -6.3634 C   0  0  0  0  0  3  0  0  0  0  0  0
   16.0832   -2.0258   -6.2454 O   0  0  0  0  0  0  0  0  0  0  0  0
   16.1719   -3.0323   -5.4380 O   0  0  0  0  0  0  0  0  0  0  0  0
  2  1  1  6
  2  3  1  0
  3  4  1  0
  4  5  1  6
  4  6  1  0
  6  7  1  1
  6  8  1  0
  8  9  1  1
  8 10  1  0
 10 11  1  1
 11 12  1  0
 12 13  1  0
 13 14  1  0
 14 15  1  6
 14 16  1  0
 16 17  1  0
 17 18  1  0
 18 19  1  1
 18 20  1  0
 20 21  1  1
 20 22  1  0
 22 23  1  6
 23 24  1  0
 24 25  1  0
 25 26  1  0
 10  2  1  0
 26 22  1  0
M  RAD  3  12   2  16   2  24   2
M  END
>  <docking_score>  (1) 
-3.6110000000000002

$$$$

     RDKit          3D

 26 27  0  0  0  0  0  0  0  0999 V2000
    4.5032    6.7820    2.9213 C   0  0  0  0  0  0  0  0  0  0  0  0
    3.1589    7.3623    3.3488 C   0  0  1  0  0  0  0  0  0  0  0  0
    2.3997    6.3268    4.1678 C   0  0  0  0  0  0  0  0  0  0  0  0
    3.1672    5.8786    5.3728 C   0  0  2  0  0  0  0  0  0  0  0  0
    2.2575    5.1822    6.1987 O   0  0  0  0  0  0  0  0  0  0  0  0
    3.7269    7.0272    6.1839 C   0  0  2  0  0  0  0  0  0  0  0  0
    2.7861    7.5992    7.0184 O   0  0  0  0  0  0  0  0  0  0  0  0
    4.3956    8.0697    5.3167 C   0  0  1  0  0  0  0  0  0  0  0  0
    5.5700    7.5972    4.7629 O   0  0  0  0  0  0  0  0  0  0  0  0
    3.4072    8.5385    4.2684 C   0  0  1  0  0  0  0  0  0  0  0  0
    3.9076    9.6708    3.5433 N   0  0  0  0  0  0  0  0  0  0  0  0
    2.9227   10.6981    3.4122 C   0  0  0  0  0  3  0  0  0  0  0  0
    3.0470   11.4561    2.1319 C   0  0  0  0  0  0  0  0  0  0  0  0
    3.4491   12.8840    2.3959 C   0  0  1  0  0  0  0  0  0  0  0  0
    2.3577   13.7398    2.2481 O   0  0  0  0  0  0  0  0  0  0  0  0
    3.9649   13.0285    3.7926 C   0  0  0  0  0  3  0  0  0  0  0  0
    4.6650   14.2246    3.9442 O   0  0  0  0  0  0  0  0  0  0  0  0
    5.9077   13.9187    4.4801 C   0  0  1  0  0  0  0  0  0  0  0  0
    6.1054   14.3960    5.7526 O   0  0  0  0  0  0  0  0  0  0  0  0
    6.1416   12.4294    4.3680 C   0  0  2  0  0  0  0  0  0  0  0  0
    6.2067   11.8299    5.6217 O   0  0  0  0  0  0  0  0  0  0  0  0
    7.4491   12.1315    3.6250 C   0  0  1  0  0  0  0  0  0  0  0  0
    7.1328   10.9921    2.6649 C   0  0  0  0  0  0  0  0  0  0  0  0
    6.7540   11.7721    1.4166 C   0  0  0  0  0  3  0  0  0  0  0  0
    6.9427   13.1057    1.7545 O   0  0  0  0  0  0  0  0  0  0  0  0
    7.7686   13.1522    2.7486 O   0  0  0  0  0  0  0  0  0  0  0  0
  2  1  1  1
  2  3  1  0
  3  4  1  0
  4  5  1  1
  4  6  1  0
  6  7  1  6
  6  8  1  0
  8  9  1  6
  8 10  1  0
 10 11  1  6
 11 12  1  0
 12 13  1  0
 13 14  1  0
 14 15  1  1
 14 16  1  0
 16 17  1  0
 17 18  1  0
 18 19  1  1
 18 20  1  0
 20 21  1  1
 20 22  1  0
 22 23  1  6
 23 24  1  0
 24 25  1  0
 25 26  1  0
 10  2  1  0
 26 22  1  0
M  RAD  3  12   2  16   2  24   2
M  END
>  <docking_score>  (2) 
-3.5459999999999998

$$$$

     RDKit          3D

 26 27  0  0  0  0  0  0  0  0999 V2000
   15.6527   -3.4251   -5.4577 C   0  0  0  0  0  0  0  0  0  0  0  0
   15.9608   -1.9409   -5.2875 C   0  0  1  0  0  0  0  0  0  0  0  0
   15.5364   -1.4938   -3.8948 C   0  0  0  0  0  0  0  0  0  0  0  0
   16.2096   -2.2808   -2.8135 C   0  0  2  0  0  0  0  0  0  0  0  0
   15.9885   -1.5839   -1.6052 O   0  0  0  0  0  0  0  0  0  0  0  0
   17.7069   -2.3941   -3.0031 C   0  0  2  0  0  0  0  0  0  0  0  0
   18.3849   -1.2673   -2.5799 O   0  0  0  0  0  0  0  0  0  0  0  0
   18.0796   -2.7567   -4.4228 C   0  0  1  0  0  0  0  0  0  0  0  0
   17.7190   -4.0544   -4.7307 O   0  0  0  0  0  0  0  0  0  0  0  0
   17.4595   -1.7435   -5.3633 C   0  0  1  0  0  0  0  0  0  0  0  0
   17.9399   -1.9087   -6.7050 N   0  0  0  0  0  0  0  0  0  0  0  0
   19.2929   -1.4701   -6.8451 C   0  0  0  0  0  3  0  0  0  0  0  0
   20.0732   -2.3050   -7.8059 C   0  0  0  0  0  0  0  0  0  0  0  0
   21.0539   -3.1833   -7.0729 C   0  0  1  0  0  0  0  0  0  0  0  0
   21.3174   -2.6748   -5.8011 O   0  0  0  0  0  0  0  0  0  0  0  0
   20.4976   -4.5627   -6.9138 C   0  0  0  0  0  3  0  0  0  0  0  0
   19.5181   -4.8189   -7.8724 O   0  0  0  0  0  0  0  0  0  0  0  0
   19.6094   -6.1594   -8.2182 C   0  0  1  0  0  0  0  0  0  0  0  0
   20.8503   -6.5428   -8.6645 O   0  0  0  0  0  0  0  0  0  0  0  0
   19.1131   -7.0024   -7.0657 C   0  0  2  0  0  0  0  0  0  0  0  0
   19.9926   -8.0422   -6.7815 O   0  0  0  0  0  0  0  0  0  0  0  0
   17.7393   -7.6073   -7.3771 C   0  0  1  0  0  0  0  0  0  0  0  0
   17.7653   -9.0183   -6.8038 C   0  0  0  0  0  0  0  0  0  0  0  0
   17.1959   -8.7697   -5.4167 C   0  0  0  0  0  3  0  0  0  0  0  0
   16.8867   -7.4161   -5.3919 O   0  0  0  0  0  0  0  0  0  0  0  0
   16.7493   -7.0160   -6.6141 O   0  0  0  0  0  0  0  0  0  0  0  0
  2  1  1  1
  2  3  1  0
  3  4  1  0
  4  5  1  1
  4  6  1  0
  6  7  1  6
  6  8  1  0
  8  9  1  6
  8 10  1  0
 10 11  1  6
 11 12  1  0
 12 13  1  0
 13 14  1  0
 14 15  1  1
 14 16  1  0
 16 17  1  0
 17 18  1  0
 18 19  1  1
 18 20  1  0
 20 21  1  6
 20 22  1  0
 22 23  1  1
 23 24  1  0
 24 25  1  0
 25 26  1  0
 10  2  1  0
 26 22  1  0
M  RAD  3  12   2  16   2  24   2
M  END
>  <docking_score>  (3) 
-3.3769999999999998

$$$$
