
     RDKit          3D

 64 68  0  0  0  0  0  0  0  0999 V2000
    6.8282    9.8508    4.4459 C   0  0  0  0  0  0  0  0  0  0  0  0
    6.7895   10.3024    2.9815 C   0  0  1  0  0  0  0  0  0  0  0  0
    5.3856   10.8510    2.7502 C   0  0  0  0  0  0  0  0  0  0  0  0
    5.0145   11.8032    3.8966 C   0  0  2  0  0  0  0  0  0  0  0  0
    4.4085   12.9165    3.2714 O   0  0  0  0  0  0  0  0  0  0  0  0
    6.3090   12.2728    4.4874 C   0  0  2  0  0  0  0  0  0  0  0  0
    6.1968   13.1494    5.5313 O   0  0  0  0  0  0  0  0  0  0  0  0
    7.2116   12.6893    3.3762 C   0  0  1  0  0  0  0  0  0  0  0  0
    8.1476   13.6371    3.7011 O   0  0  0  0  0  0  0  0  0  0  0  0
    7.8373   11.4086    2.8109 C   0  0  1  0  0  0  0  0  0  0  0  0
    8.9514   11.0907    3.7125 N   0  0  0  0  0  0  0  0  0  0  0  0
    8.6716   11.6540    5.0343 C   0  0  0  0  0  3  0  0  0  0  0  0
    9.8607   12.4068    5.5352 C   0  0  0  0  0  0  0  0  0  0  0  0
    9.5179   13.3571    6.6320 C   0  0  2  0  0  0  0  0  0  0  0  0
    9.9467   12.8741    7.8432 O   0  0  0  0  0  0  0  0  0  0  0  0
    8.1840   13.8694    6.6143 N   0  0  0  0  0  0  0  0  0  0  0  0
    7.1932   12.8558    6.4557 C   0  0  1  0  0  0  0  0  0  0  0  0
    6.6769   12.2497    7.7182 C   0  0  1  0  0  0  0  0  0  0  0  0
    7.7049   12.0786    8.6659 O   0  0  0  0  0  0  0  0  0  0  0  0
    5.5279   13.0374    8.3153 C   0  0  2  0  0  0  0  0  0  0  0  0
    5.6099   14.4992    7.9012 C   0  0  0  0  0  2  0  0  0  0  0  0
    5.6893   12.9420    9.8299 C   0  0  0  0  0  3  0  0  0  0  0  0
    5.3352   11.5363   10.2496 C   0  0  2  0  0  0  0  0  0  0  0  0
    3.9720   11.4685   10.4587 O   0  0  0  0  0  0  0  0  0  0  0  0
    3.7144   10.9424   11.6409 O   0  0  0  0  0  0  0  0  0  0  0  0
    3.5942    9.6282   11.5630 O   0  0  0  0  0  0  0  0  0  0  0  0
    4.0719    9.1090   12.6762 O   0  0  0  0  0  0  0  0  0  0  0  0
    5.2441    9.7683   13.0266 C   0  0  2  0  0  0  0  0  0  0  0  0
    4.9329   10.9871   13.6067 O   0  0  0  0  0  0  0  0  0  0  0  0
    6.0280    9.9156   11.8846 O   0  0  0  0  0  0  0  0  0  0  0  0
    6.0813   11.2721   11.5656 C   0  0  1  0  0  0  0  0  0  0  0  0
    7.3911   11.6898   11.3243 O   0  0  0  0  0  0  0  0  0  0  0  0
    8.1901   11.5980   12.4396 C   0  0  1  0  0  0  0  0  0  0  0  0
    8.4337   10.2846   12.7951 O   0  0  0  0  0  0  0  0  0  0  0  0
    9.5564   12.2643   12.2273 C   0  0  1  0  0  0  0  0  0  0  0  0
    9.2800   13.6251   11.9601 O   0  0  0  0  0  0  0  0  0  0  0  0
    7.9957   13.8487   11.7723 O   0  0  0  0  0  0  0  0  0  0  0  0
    7.1128   14.2331   12.7701 C   0  0  0  0  0  0  0  0  0  0  0  0
    7.4545   14.8352   13.8798 C   0  0  0  0  0  0  0  0  0  0  0  0
    8.7559   15.1687   14.2023 O   0  0  0  0  0  0  0  0  0  0  0  0
    9.6166   14.2102   14.7505 C   0  0  0  0  0  0  0  0  0  0  0  0
    9.0575   13.4546   15.7549 O   0  0  0  0  0  0  0  0  0  0  0  0
    8.5286   12.2625   15.3043 C   0  0  0  0  0  3  0  0  0  0  0  0
    9.5411   11.3941   14.5872 C   0  0  0  0  0  0  0  0  0  0  0  0
   10.2428   12.2390   13.5734 C   0  0  1  0  0  0  0  0  0  0  0  0
   11.6820   11.7850   13.4860 C   0  0  0  0  0  3  0  0  0  0  0  0
   12.3271   12.5691   12.4839 N   0  0  0  0  0  0  0  0  0  0  0  0
   12.5463   11.9168   11.2372 C   0  0  2  0  0  0  0  0  0  0  0  0
   13.6110   11.0194   11.2941 O   0  0  0  0  0  0  0  0  0  0  0  0
   12.8740   12.8980   10.2916 O   0  0  0  0  0  0  0  0  0  0  0  0
   11.7486   13.7108   10.1486 C   0  0  0  0  0  0  0  0  0  0  0  0
   11.8001   14.8605   10.8981 O   0  0  0  0  0  0  0  0  0  0  0  0
   13.0002   15.0819   11.5282 C   0  0  0  0  0  3  0  0  0  0  0  0
   12.9670   14.7263   12.8948 O   0  0  0  0  0  0  0  0  0  0  0  0
   13.3902   13.3977   12.9437 C   0  0  1  0  0  0  0  0  0  0  0  0
   13.9220   13.0344   14.1580 O   0  0  0  0  0  0  0  0  0  0  0  0
   13.8001   14.3451   15.2553 S   0  0  0  0  0  0  0  0  0  0  0  0
   14.4606   13.9546   16.8819 C   0  0  0  0  0  0  0  0  0  0  0  0
   15.7112   13.3497   16.8365 O   0  0  0  0  0  0  0  0  0  0  0  0
   16.6509   14.3614   17.0790 C   0  0  0  0  0  0  0  0  0  0  0  0
   17.8050   13.8998   17.9071 C   0  0  0  0  0  0  0  0  0  0  0  0
   18.8352   13.3282   17.1366 O   0  0  0  0  0  0  0  0  0  0  0  0
   19.9157   14.1990   17.2328 C   0  0  0  0  0  3  0  0  0  0  0  0
   20.7090   13.8724   18.3354 O   0  0  0  0  0  0  0  0  0  0  0  0
  2  1  1  1
  2  3  1  0
  3  4  1  0
  4  5  1  6
  4  6  1  0
  6  7  1  1
  6  8  1  0
  8  9  1  1
  8 10  1  0
 10 11  1  1
 11 12  1  0
 12 13  1  0
 13 14  1  0
 14 15  1  1
 14 16  1  0
 17 16  1  1
 17 18  1  0
 18 19  1  1
 18 20  1  0
 20 21  1  6
 20 22  1  0
 23 22  1  1
 23 24  1  0
 24 25  1  0
 25 26  1  0
 26 27  1  0
 27 28  1  0
 28 29  1  6
 28 30  1  0
 30 31  1  0
 31 32  1  6
 32 33  1  0
 33 34  1  6
 33 35  1  0
 35 36  1  1
 36 37  1  0
 37 38  1  0
 38 39  2  3
 39 40  1  0
 40 41  1  0
 41 42  1  0
 42 43  1  0
 43 44  1  0
 44 45  1  0
 45 46  1  6
 46 47  1  0
 47 48  1  0
 48 49  1  1
 48 50  1  0
 50 51  1  0
 51 52  1  0
 52 53  1  0
 53 54  1  0
 54 55  1  0
 55 56  1  1
 56 57  1  0
 57 58  1  0
 58 59  1  0
 59 60  1  0
 60 61  1  0
 61 62  1  0
 62 63  1  0
 63 64  1  0
 10  2  1  0
 17  7  1  0
 31 23  1  0
 45 35  1  0
 55 47  1  0
M  RAD  7  12   2  21   3  22   2  43   2  46   2  53   2  63   2
M  END
>  <docking_score>  (1) 
52.307000000000002

$$$$
