
     RDKit          3D

 50 51  0  0  0  0  0  0  0  0999 V2000
    8.5685   12.2146   13.2952 C   0  0  0  0  0  0  0  0  0  0  0  0
    7.9656   11.0851   12.7425 O   0  0  0  0  0  0  0  0  0  0  0  0
    6.8001   11.4478   12.0274 C   0  0  0  0  0  3  0  0  0  0  0  0
    6.8814   12.7989   11.8026 O   0  0  0  0  0  0  0  0  0  0  0  0
    5.9453   13.3145   10.9516 C   0  0  2  0  0  0  0  0  0  0  0  0
    6.7027   13.9051    9.7541 C   0  0  0  0  0  0  0  0  0  0  0  0
    5.3360   14.5265   11.6705 C   0  0  1  0  0  0  0  0  0  0  0  0
    6.2905   15.5887   11.8157 N   0  0  0  0  0  0  0  0  0  0  0  0
    6.3941   16.0682   13.1796 C   0  0  0  0  0  3  0  0  0  0  0  0
    7.7849   16.0481   13.7221 C   0  0  0  0  0  0  0  0  0  0  0  0
    8.2364   14.7313   14.2508 C   0  0  2  0  0  0  0  0  0  0  0  0
    7.6746   14.3568   15.4436 O   0  0  0  0  0  0  0  0  0  0  0  0
    9.7252   14.5117   14.1817 C   0  0  2  0  0  0  0  0  0  0  0  0
   10.3752   15.8645   14.4722 C   0  0  0  0  0  0  0  0  0  0  0  0
   10.2017   14.0662   12.8479 C   0  0  1  0  0  0  0  0  0  0  0  0
   11.5834   13.9310   12.8883 O   0  0  0  0  0  0  0  0  0  0  0  0
   12.0360   14.5666   14.0302 C   0  0  2  0  0  0  0  0  0  0  0  0
   13.3957   14.4374   14.1456 O   0  0  0  0  0  0  0  0  0  0  0  0
   11.1423   14.1735   15.5242 S   0  0  0  0  0  0  0  0  0  0  0  0
   12.0609   14.7853   16.9471 C   0  0  0  0  0  3  0  0  0  0  0  0
   13.5413   14.6055   16.8393 C   0  0  0  0  0  3  0  0  0  0  0  0
   14.0019   13.3373   17.5291 C   0  0  0  0  0  3  0  0  0  0  0  0
   14.5090   13.5914   18.9262 C   0  0  0  0  0  3  0  0  0  0  0  0
   13.5025   13.2444   19.9935 C   0  0  0  0  0  3  0  0  0  0  0  0
   13.8955   13.6971   21.2552 O   0  0  0  0  0  0  0  0  0  0  0  0
    9.6626   12.7238   12.4242 C   0  0  2  0  0  0  0  0  0  0  0  0
    9.4095   12.6706   11.0723 O   0  0  0  0  0  0  0  0  0  0  0  0
    9.7597   11.4474   10.5022 C   0  0  0  0  0  0  0  0  0  0  0  0
   11.0272   11.5938    9.9392 O   0  0  0  0  0  0  0  0  0  0  0  0
   11.4867   10.3792    9.4707 C   0  0  0  0  0  3  0  0  0  0  0  0
   10.4327    9.4740    9.4220 O   0  0  0  0  0  0  0  0  0  0  0  0
   10.8501    8.3342    8.7743 C   0  0  0  0  0  3  0  0  0  0  0  0
   10.4376    8.4395    7.3280 C   0  0  1  0  0  0  0  0  0  0  0  0
   11.5751    8.7205    6.5650 O   0  0  0  0  0  0  0  0  0  0  0  0
    9.8078    7.1715    6.8530 C   0  0  0  0  0  0  0  0  0  0  0  0
    8.6681    7.2246    6.1361 C   0  0  0  0  0  0  0  0  0  0  0  0
    8.0262    8.5275    5.8100 C   0  0  0  0  0  3  0  0  0  0  0  0
    6.6345    8.2958    5.5910 O   0  0  0  0  0  0  0  0  0  0  0  0
    5.8585    9.4039    5.2467 C   0  0  0  0  0  0  0  0  0  0  0  0
    4.7078    9.5535    5.8977 C   0  0  0  0  0  0  0  0  0  0  0  0
    3.8639   10.7192    5.5538 C   0  0  0  0  0  0  0  0  0  0  0  0
    2.5143   10.6399    6.2254 C   0  0  0  0  0  3  0  0  0  0  0  0
    2.2683   11.9132    6.9909 C   0  0  0  0  0  0  0  0  0  0  0  0
    2.8694   11.8364    8.2338 O   0  0  0  0  0  0  0  0  0  0  0  0
    3.7412   12.9150    8.4044 C   0  0  0  0  0  3  0  0  0  0  0  0
    3.1595   13.8555    9.2221 O   0  0  0  0  0  0  0  0  0  0  0  0
    4.0839   14.9295   10.9328 C   0  0  2  0  0  0  0  0  0  0  0  0
    3.1669   15.5852   11.9586 C   0  0  0  0  0  0  0  0  0  0  0  0
    3.4269   14.8931   13.2756 C   0  0  0  0  0  2  0  0  0  0  0  0
    3.4883   13.7403   10.4847 O   0  0  0  0  0  0  0  0  0  0  0  0
  1  2  1  0
  2  3  1  0
  3  4  1  0
  4  5  1  0
  5  6  1  6
  5  7  1  0
  7  8  1  6
  8  9  1  0
  9 10  1  0
 10 11  1  0
 11 12  1  1
 11 13  1  0
 13 14  1  6
 13 15  1  0
 15 16  1  1
 16 17  1  0
 17 18  1  1
 17 19  1  0
 19 20  1  0
 20 21  1  0
 21 22  1  0
 22 23  1  0
 23 24  1  0
 24 25  1  0
 15 26  1  0
 26 27  1  6
 27 28  1  0
 28 29  1  0
 29 30  1  0
 30 31  1  0
 31 32  1  0
 32 33  1  0
 33 34  1  6
 33 35  1  0
 35 36  2  3
 36 37  1  0
 37 38  1  0
 38 39  1  0
 39 40  2  3
 40 41  1  0
 41 42  1  0
 42 43  1  0
 43 44  1  0
 44 45  1  0
 45 46  1  0
  7 47  1  0
 47 48  1  1
 48 49  1  0
 47 50  1  0
 26  1  1  0
 50 46  1  0
M  RAD  8   3   2   9   2  20   2  21   2  22   2  23   2  24   2  30   2
M  RAD  5  32   2  37   2  42   2  45   2  49   3
M  END
>  <docking_score>  (1) 
31.853999999999999

$$$$

     RDKit          3D

 50 51  0  0  0  0  0  0  0  0999 V2000
    5.6255    7.1447    5.6374 C   0  0  0  0  0  0  0  0  0  0  0  0
    6.2235    8.2509    6.2402 O   0  0  0  0  0  0  0  0  0  0  0  0
    5.5974    9.4450    5.8119 C   0  0  0  0  0  3  0  0  0  0  0  0
    4.3919    9.0828    5.2658 O   0  0  0  0  0  0  0  0  0  0  0  0
    3.5432   10.1117    4.9702 C   0  0  2  0  0  0  0  0  0  0  0  0
    2.2812    9.9125    5.8212 C   0  0  0  0  0  0  0  0  0  0  0  0
    3.0839    9.8840    3.5231 C   0  0  1  0  0  0  0  0  0  0  0  0
    2.2592    8.7147    3.4089 N   0  0  0  0  0  0  0  0  0  0  0  0
    2.7112    7.8076    2.3725 C   0  0  0  0  0  3  0  0  0  0  0  0
    2.9435    6.4127    2.8511 C   0  0  0  0  0  0  0  0  0  0  0  0
    4.2640    6.1801    3.4989 C   0  0  2  0  0  0  0  0  0  0  0  0
    5.3371    6.1573    2.6464 O   0  0  0  0  0  0  0  0  0  0  0  0
    4.2694    5.0697    4.5169 C   0  0  2  0  0  0  0  0  0  0  0  0
    3.3312    3.9881    3.9811 C   0  0  0  0  0  0  0  0  0  0  0  0
    3.7606    5.4796    5.8502 C   0  0  1  0  0  0  0  0  0  0  0  0
    3.7760    4.3762    6.6938 O   0  0  0  0  0  0  0  0  0  0  0  0
    5.0776    3.9132    6.7586 C   0  0  2  0  0  0  0  0  0  0  0  0
    5.8077    4.3809    5.6970 O   0  0  0  0  0  0  0  0  0  0  0  0
    5.2475    2.1585    7.0367 S   0  0  0  0  0  0  0  0  0  0  0  0
    6.7384    1.8486    7.9978 C   0  0  0  0  0  3  0  0  0  0  0  0
    7.5544    0.6980    7.5019 C   0  0  0  0  0  3  0  0  0  0  0  0
    8.7525    0.4377    8.3925 C   0  0  0  0  0  3  0  0  0  0  0  0
    8.9086    1.4810    9.4699 C   0  0  0  0  0  3  0  0  0  0  0  0
    8.8071    0.9135   10.8627 C   0  0  0  0  0  3  0  0  0  0  0  0
    9.3040    1.7931   11.8274 O   0  0  0  0  0  0  0  0  0  0  0  0
    4.5996    6.5340    6.5259 C   0  0  2  0  0  0  0  0  0  0  0  0
    3.8328    7.4279    7.2383 O   0  0  0  0  0  0  0  0  0  0  0  0
    4.4139    7.7957    8.4510 C   0  0  0  0  0  0  0  0  0  0  0  0
    3.8475    7.0003    9.4466 O   0  0  0  0  0  0  0  0  0  0  0  0
    4.4750    7.2261   10.6554 C   0  0  0  0  0  3  0  0  0  0  0  0
    5.2440    8.3809   10.5683 O   0  0  0  0  0  0  0  0  0  0  0  0
    5.7064    8.7075   11.8223 C   0  0  0  0  0  3  0  0  0  0  0  0
    4.7706    9.7302   12.4150 C   0  0  1  0  0  0  0  0  0  0  0  0
    3.9864    9.0994   13.3857 O   0  0  0  0  0  0  0  0  0  0  0  0
    5.5272   10.8615   13.0297 C   0  0  0  0  0  0  0  0  0  0  0  0
    5.1409   12.1290   12.7848 C   0  0  0  0  0  0  0  0  0  0  0  0
    3.9716   12.4199   11.9107 C   0  0  0  0  0  3  0  0  0  0  0  0
    4.1355   13.7308   11.3693 O   0  0  0  0  0  0  0  0  0  0  0  0
    3.1193   14.1987   10.5346 C   0  0  0  0  0  0  0  0  0  0  0  0
    3.4976   14.7660    9.3921 C   0  0  0  0  0  0  0  0  0  0  0  0
    2.4421   15.2715    8.4869 C   0  0  0  0  0  0  0  0  0  0  0  0
    3.0295   16.0595    7.3410 C   0  0  0  0  0  3  0  0  0  0  0  0
    2.5202   15.4947    6.0412 C   0  0  0  0  0  0  0  0  0  0  0  0
    3.2930   14.4111    5.6664 O   0  0  0  0  0  0  0  0  0  0  0  0
    2.4780   13.2914    5.4801 C   0  0  0  0  0  3  0  0  0  0  0  0
    2.2902   13.0742    4.1351 O   0  0  0  0  0  0  0  0  0  0  0  0
    2.4195   11.1476    3.0370 C   0  0  2  0  0  0  0  0  0  0  0  0
    2.6111   11.1858    1.5254 C   0  0  0  0  0  0  0  0  0  0  0  0
    3.6746   10.1644    1.1985 C   0  0  0  0  0  2  0  0  0  0  0  0
    3.1280   12.2138    3.6122 O   0  0  0  0  0  0  0  0  0  0  0  0
  1  2  1  0
  2  3  1  0
  3  4  1  0
  4  5  1  0
  5  6  1  1
  5  7  1  0
  7  8  1  1
  8  9  1  0
  9 10  1  0
 10 11  1  0
 11 12  1  6
 11 13  1  0
 13 14  1  6
 13 15  1  0
 15 16  1  1
 16 17  1  0
 17 18  1  6
 17 19  1  0
 19 20  1  0
 20 21  1  0
 21 22  1  0
 22 23  1  0
 23 24  1  0
 24 25  1  0
 15 26  1  0
 26 27  1  6
 27 28  1  0
 28 29  1  0
 29 30  1  0
 30 31  1  0
 31 32  1  0
 32 33  1  0
 33 34  1  1
 33 35  1  0
 35 36  2  3
 36 37  1  0
 37 38  1  0
 38 39  1  0
 39 40  2  3
 40 41  1  0
 41 42  1  0
 42 43  1  0
 43 44  1  0
 44 45  1  0
 45 46  1  0
  7 47  1  0
 47 48  1  6
 48 49  1  0
 47 50  1  0
 26  1  1  0
 50 46  1  0
M  RAD  8   3   2   9   2  20   2  21   2  22   2  23   2  24   2  30   2
M  RAD  5  32   2  37   2  42   2  45   2  49   3
M  END
>  <docking_score>  (2) 
33.198

$$$$
