
     RDKit          3D

 18 19  0  0  0  0  0  0  0  0999 V2000
   13.6139   -5.1421   -6.8295 O   0  0  0  0  0  0  0  0  0  0  0  0
   14.5943   -5.0956   -5.6953 C   0  0  0  0  0  0  0  0  0  0  0  0
   15.4230   -6.2431   -5.1986 N   0  0  0  0  0  0  0  0  0  0  0  0
   16.2591   -5.7503   -4.0549 C   0  0  0  0  0  0  0  0  0  0  0  0
   15.9472   -4.2982   -3.8447 C   0  0  0  0  0  0  0  0  0  0  0  0
   16.5570   -3.4072   -2.8035 C   0  0  0  0  0  0  0  0  0  0  0  0
   16.1731   -1.9586   -2.7378 C   0  0  0  0  0  0  0  0  0  0  0  0
   16.7830   -1.0676   -1.6965 F   0  0  0  0  0  0  0  0  0  0  0  0
   14.9183   -3.8936   -4.8585 C   0  0  0  0  0  0  0  0  0  0  0  0
   15.7470   -5.0411   -4.3619 C   0  0  0  0  0  0  0  0  0  0  0  0
   16.7274   -4.9946   -3.2276 C   0  0  0  0  0  0  0  0  0  0  0  0
   18.1862   -4.7830   -3.5055 C   0  0  0  0  0  0  0  0  0  0  0  0
   19.1668   -4.7366   -2.3713 C   0  0  0  0  0  0  0  0  0  0  0  0
   19.8632   -3.4516   -2.0340 N   0  0  0  0  0  0  0  0  0  0  0  0
   19.9788   -2.3682   -3.0650 C   0  0  0  0  0  0  0  0  0  0  0  0
   20.0776   -0.9338   -2.6378 C   0  0  0  0  0  0  0  0  0  0  0  0
   20.1932    0.1497   -3.6688 C   0  0  0  0  0  0  0  0  0  0  0  0
   19.6842   -0.0820   -5.0606 Cl  0  0  0  0  0  0  0  0  0  0  0  0
  1  2  2  0
  2  3  1  0
  3  4  1  0
  4  5  2  0
  5  6  1  0
  6  7  2  3
  7  8  1  0
  2  9  1  0
  9 10  1  0
 10 11  1  0
 11 12  2  3
 12 13  1  0
 13 14  1  0
 14 15  1  0
 15 16  2  3
 16 17  1  0
 17 18  1  0
 10  3  1  0
  9  5  1  0
M  END
>  <docking_score>  (1) 
-4.3550000000000004

$$$$

     RDKit          3D

 18 19  0  0  0  0  0  0  0  0999 V2000
   21.1865   -1.7078   -1.1904 O   0  0  0  0  0  0  0  0  0  0  0  0
   20.0202   -2.5355   -1.6429 C   0  0  0  0  0  0  0  0  0  0  0  0
   18.6038   -2.0617   -1.7819 N   0  0  0  0  0  0  0  0  0  0  0  0
   17.7738   -3.2157   -2.2607 C   0  0  0  0  0  0  0  0  0  0  0  0
   18.6772   -4.4028   -2.4176 C   0  0  0  0  0  0  0  0  0  0  0  0
   18.2647   -5.7702   -2.8759 C   0  0  0  0  0  0  0  0  0  0  0  0
   19.2531   -6.6576   -3.5727 C   0  0  0  0  0  0  0  0  0  0  0  0
   18.8405   -8.0250   -4.0309 F   0  0  0  0  0  0  0  0  0  0  0  0
   20.0656   -3.9825   -2.0358 C   0  0  0  0  0  0  0  0  0  0  0  0
   18.6492   -3.5086   -2.1748 C   0  0  0  0  0  0  0  0  0  0  0  0
   17.4829   -4.3363   -2.6273 C   0  0  0  0  0  0  0  0  0  0  0  0
   16.9031   -4.1305   -3.9953 C   0  0  0  0  0  0  0  0  0  0  0  0
   15.7368   -4.9582   -4.4478 C   0  0  0  0  0  0  0  0  0  0  0  0
   14.8231   -4.4436   -5.5204 N   0  0  0  0  0  0  0  0  0  0  0  0
   14.0064   -3.2085   -5.2809 C   0  0  0  0  0  0  0  0  0  0  0  0
   14.6296   -1.8539   -5.4445 C   0  0  0  0  0  0  0  0  0  0  0  0
   13.8128   -0.6187   -5.2050 C   0  0  0  0  0  0  0  0  0  0  0  0
   13.8703    0.0723   -3.8749 Cl  0  0  0  0  0  0  0  0  0  0  0  0
  1  2  2  0
  2  3  1  0
  3  4  1  0
  4  5  2  0
  5  6  1  0
  6  7  2  3
  7  8  1  0
  2  9  1  0
  9 10  1  0
 10 11  1  0
 11 12  2  3
 12 13  1  0
 13 14  1  0
 14 15  1  0
 15 16  2  3
 16 17  1  0
 17 18  1  0
 10  3  1  0
  9  5  1  0
M  END
>  <docking_score>  (2) 
-4.2199999999999998

$$$$

     RDKit          3D

 18 19  0  0  0  0  0  0  0  0999 V2000
   21.0341    2.1906   -5.1256 O   0  0  0  0  0  0  0  0  0  0  0  0
   20.3841    0.9325   -4.6309 C   0  0  0  0  0  0  0  0  0  0  0  0
   20.6296    0.2759   -3.3048 N   0  0  0  0  0  0  0  0  0  0  0  0
   19.7717   -0.9523   -3.2298 C   0  0  0  0  0  0  0  0  0  0  0  0
   18.9960   -1.0547   -4.5096 C   0  0  0  0  0  0  0  0  0  0  0  0
   18.0142   -2.1327   -4.8616 C   0  0  0  0  0  0  0  0  0  0  0  0
   17.0634   -1.9369   -6.0051 C   0  0  0  0  0  0  0  0  0  0  0  0
   16.0816   -3.0150   -6.3571 F   0  0  0  0  0  0  0  0  0  0  0  0
   19.3745    0.1101   -5.3755 C   0  0  0  0  0  0  0  0  0  0  0  0
   19.6200   -0.5465   -4.0494 C   0  0  0  0  0  0  0  0  0  0  0  0
   18.9700   -1.8046   -3.5548 C   0  0  0  0  0  0  0  0  0  0  0  0
   17.8769   -1.7311   -2.5301 C   0  0  0  0  0  0  0  0  0  0  0  0
   17.2268   -2.9892   -2.0354 C   0  0  0  0  0  0  0  0  0  0  0  0
   17.9934   -4.2785   -2.0328 N   0  0  0  0  0  0  0  0  0  0  0  0
   17.5491   -5.4170   -2.9026 C   0  0  0  0  0  0  0  0  0  0  0  0
   16.2704   -5.3123   -3.6798 C   0  0  0  0  0  0  0  0  0  0  0  0
   15.8261   -6.4508   -4.5497 C   0  0  0  0  0  0  0  0  0  0  0  0
   16.3463   -6.5710   -5.9514 Cl  0  0  0  0  0  0  0  0  0  0  0  0
  1  2  2  0
  2  3  1  0
  3  4  1  0
  4  5  2  0
  5  6  1  0
  6  7  2  3
  7  8  1  0
  2  9  1  0
  9 10  1  0
 10 11  1  0
 11 12  2  3
 12 13  1  0
 13 14  1  0
 14 15  1  0
 15 16  2  3
 16 17  1  0
 17 18  1  0
 10  3  1  0
  9  5  1  0
M  END
>  <docking_score>  (3) 
-3.895

$$$$
