
     RDKit          3D

 36 36  0  0  0  0  0  0  0  0999 V2000
    4.3778    7.6161   11.4843 C   0  0  0  0  0  0  0  0  0  0  0  0
    3.6507    8.5519   12.1196 C   0  0  0  0  0  0  0  0  0  0  0  0
    2.2860    8.1777   12.5412 C   0  0  0  0  0  0  0  0  0  0  0  0
    4.3069    9.8566   12.3424 C   0  0  0  0  0  0  0  0  0  0  0  0
    3.4599   10.9508   11.7846 C   0  0  0  0  0  0  0  0  0  0  0  0
    4.1970   11.9583   10.9761 C   0  0  0  0  0  0  0  0  0  0  0  0
    3.7576   13.3366   11.3167 C   0  0  1  0  0  0  0  0  0  0  0  0
    3.8962   13.6823   12.7620 C   0  0  0  0  0  0  0  0  0  0  0  0
    4.4446   14.3263   10.4237 C   0  0  0  0  0  0  0  0  0  0  0  0
    4.7547   13.6200    9.1017 C   0  0  0  0  0  0  0  0  0  0  0  0
    6.1125   14.1439    8.6313 C   0  0  0  0  0  0  0  0  0  0  0  0
    6.1747   14.0270    7.1033 C   0  0  0  0  0  3  0  0  0  0  0  0
    7.5986   14.1082    6.6224 C   0  0  0  0  0  3  0  0  0  0  0  0
    7.7715   15.1121    5.5008 C   0  0  0  0  0  2  0  0  0  0  0  0
    9.0210   14.8255    4.6909 C   0  0  0  0  0  3  0  0  0  0  0  0
    8.7070   13.3336    3.6944 S   0  0  0  0  0  0  0  0  0  0  0  0
    7.4516   12.2896    4.4734 C   0  0  0  0  0  0  0  0  0  0  0  0
    6.4032   11.9671    3.4402 C   0  0  0  0  0  0  0  0  0  0  0  0
    5.8916   13.2762    2.8670 C   0  0  0  0  0  0  0  0  0  0  0  0
    4.9343   12.9465    1.7558 C   0  0  0  0  0  0  0  0  0  0  0  0
    4.7160   11.4822    1.5613 C   0  0  0  0  0  0  0  0  0  0  0  0
    4.8254   10.6693    2.8075 C   0  0  0  0  0  3  0  0  0  0  0  0
    3.4972   10.2957    3.3999 C   0  0  0  0  0  0  0  0  0  0  0  0
    2.9477    9.1402    2.7492 O   0  0  0  0  0  0  0  0  0  0  0  0
    2.7984    7.9791    3.4913 C   0  0  0  0  0  0  0  0  0  0  0  0
    2.9512    6.6827    2.7862 C   0  0  0  0  0  0  0  0  0  0  0  0
    4.0652    5.8433    3.3134 C   0  0  1  0  0  0  0  0  0  0  0  0
    5.2847    5.8109    2.4568 C   0  0  0  0  0  0  0  0  0  0  0  0
    4.3277    5.9948    4.7727 C   0  0  1  0  0  0  0  0  0  0  0  0
    4.7857    4.7132    5.4192 C   0  0  0  0  0  0  0  0  0  0  0  0
    5.1756    7.1774    5.1286 C   0  0  0  0  0  0  0  0  0  0  0  0
    4.5774    7.8356    6.3568 C   0  0  0  0  0  0  0  0  0  0  0  0
    3.3397    7.1028    6.8417 C   0  0  0  0  0  3  0  0  0  0  0  0
    2.3451    6.9391    5.6902 C   0  0  0  0  0  0  0  0  0  0  0  0
    2.5296    8.0988    4.7792 C   0  0  0  0  0  0  0  0  0  0  0  0
    2.3944    9.4622    5.3978 C   0  0  0  0  0  0  0  0  0  0  0  0
  1  2  2  0
  2  3  1  0
  2  4  1  0
  4  5  1  0
  5  6  1  0
  6  7  1  0
  7  8  1  1
  7  9  1  0
  9 10  1  0
 10 11  1  0
 11 12  1  0
 12 13  1  0
 13 14  1  0
 14 15  1  0
 15 16  1  0
 16 17  1  0
 17 18  1  0
 18 19  1  0
 19 20  1  0
 20 21  1  0
 21 22  1  0
 22 23  1  0
 23 24  1  0
 24 25  1  0
 25 26  1  0
 26 27  1  0
 27 28  1  6
 27 29  1  0
 29 30  1  6
 29 31  1  0
 31 32  1  0
 32 33  1  0
 33 34  1  0
 34 35  1  0
 35 36  1  0
 25 35  2  3
M  RAD  6  12   2  13   2  14   3  15   2  22   2  33   2
M  END
>  <docking_score>  (1) 
-0.96099999999999997

$$$$
