
     RDKit          3D

 23 24  0  0  0  0  0  0  0  0999 V2000
   16.9201   -4.8423   -8.6374 C   0  0  0  0  0  0  0  0  0  0  0  0
   16.1215   -3.6627   -8.0881 C   0  0  1  0  0  0  0  0  0  0  0  0
   14.6398   -3.8855   -8.4536 C   0  0  0  0  0  0  0  0  0  0  0  0
   14.3742   -5.3402   -8.1283 C   0  0  2  0  0  0  0  0  0  0  0  0
   13.0225   -5.5771   -8.3760 O   0  0  0  0  0  0  0  0  0  0  0  0
   14.6217   -5.6935   -6.6845 C   0  0  2  0  0  0  0  0  0  0  0  0
   13.5829   -5.1785   -5.9142 O   0  0  0  0  0  0  0  0  0  0  0  0
   15.9596   -5.2295   -6.1614 C   0  0  1  0  0  0  0  0  0  0  0  0
   16.9220   -6.0785   -6.7230 O   0  0  0  0  0  0  0  0  0  0  0  0
   16.1305   -3.7937   -6.5652 C   0  0  1  0  0  0  0  0  0  0  0  0
   17.1263   -3.0531   -5.9230 N   0  0  0  0  0  0  0  0  0  0  0  0
   16.7772   -2.1136   -4.9273 C   0  0  1  0  0  0  0  0  0  0  0  0
   15.6162   -2.4904   -4.0423 C   0  0  2  0  0  0  0  0  0  0  0  0
   14.9790   -1.2576   -3.4869 C   0  0  0  0  0  0  0  0  0  0  0  0
   15.8961   -3.4666   -3.1206 O   0  0  0  0  0  0  0  0  0  0  0  0
   16.7035   -3.0533   -2.0642 C   0  0  2  0  0  0  0  0  0  0  0  0
   16.8458   -1.6677   -2.0077 O   0  0  0  0  0  0  0  0  0  0  0  0
   18.0683   -3.7010   -2.2972 C   0  0  2  0  0  0  0  0  0  0  0  0
   18.9763   -3.4147   -1.3008 O   0  0  0  0  0  0  0  0  0  0  0  0
   18.5368   -3.2384   -3.6486 C   0  0  2  0  0  0  0  0  0  0  0  0
   19.9031   -3.3271   -3.8115 O   0  0  0  0  0  0  0  0  0  0  0  0
   17.9780   -1.8856   -4.0345 C   0  0  1  0  0  0  0  0  0  0  0  0
   18.9896   -1.1657   -4.6789 O   0  0  0  0  0  0  0  0  0  0  0  0
  2  1  1  6
  2  3  1  0
  3  4  1  0
  4  5  1  1
  4  6  1  0
  6  7  1  1
  6  8  1  0
  8  9  1  6
  8 10  1  0
 10 11  1  6
 12 11  1  6
 12 13  1  0
 13 14  1  1
 13 15  1  0
 15 16  1  0
 16 17  1  6
 16 18  1  0
 18 19  1  1
 18 20  1  0
 20 21  1  1
 20 22  1  0
 22 23  1  6
 10  2  1  0
 22 12  1  0
M  END
>  <docking_score>  (1) 
-5.4059999999999997

$$$$

     RDKit          3D

 23 24  0  0  0  0  0  0  0  0999 V2000
   16.0657   -2.3706   -7.7579 C   0  0  0  0  0  0  0  0  0  0  0  0
   16.9752   -1.9830   -6.5944 C   0  0  1  0  0  0  0  0  0  0  0  0
   16.4843   -0.6288   -6.0433 C   0  0  0  0  0  0  0  0  0  0  0  0
   14.9787   -0.7664   -5.9596 C   0  0  2  0  0  0  0  0  0  0  0  0
   14.4884    0.4121   -5.3983 O   0  0  0  0  0  0  0  0  0  0  0  0
   14.5217   -1.8955   -5.0726 C   0  0  2  0  0  0  0  0  0  0  0  0
   14.7094   -1.5242   -3.7442 O   0  0  0  0  0  0  0  0  0  0  0  0
   15.1974   -3.2139   -5.3625 C   0  0  1  0  0  0  0  0  0  0  0  0
   14.6451   -3.6888   -6.5591 O   0  0  0  0  0  0  0  0  0  0  0  0
   16.6734   -2.9556   -5.4545 C   0  0  1  0  0  0  0  0  0  0  0  0
   17.5304   -4.0573   -5.3869 N   0  0  0  0  0  0  0  0  0  0  0  0
   17.1128   -5.3096   -5.8902 C   0  0  1  0  0  0  0  0  0  0  0  0
   17.9502   -5.8862   -7.0034 C   0  0  2  0  0  0  0  0  0  0  0  0
   17.1273   -6.8259   -7.8245 C   0  0  0  0  0  0  0  0  0  0  0  0
   19.1683   -6.3748   -6.6054 O   0  0  0  0  0  0  0  0  0  0  0  0
   19.1094   -7.5678   -5.8897 C   0  0  2  0  0  0  0  0  0  0  0  0
   17.8531   -8.1689   -5.9509 O   0  0  0  0  0  0  0  0  0  0  0  0
   19.4367   -7.2076   -4.4407 C   0  0  2  0  0  0  0  0  0  0  0  0
   19.4573   -8.3038   -3.6058 O   0  0  0  0  0  0  0  0  0  0  0  0
   18.4230   -6.1826   -4.0146 C   0  0  2  0  0  0  0  0  0  0  0  0
   18.2692   -6.1041   -2.6466 O   0  0  0  0  0  0  0  0  0  0  0  0
   17.1089   -6.3107   -4.7550 C   0  0  1  0  0  0  0  0  0  0  0  0
   16.0730   -6.0767   -3.8444 O   0  0  0  0  0  0  0  0  0  0  0  0
  2  1  1  6
  2  3  1  0
  3  4  1  0
  4  5  1  1
  4  6  1  0
  6  7  1  1
  6  8  1  0
  8  9  1  6
  8 10  1  0
 10 11  1  6
 12 11  1  1
 12 13  1  0
 13 14  1  1
 13 15  1  0
 15 16  1  0
 16 17  1  1
 16 18  1  0
 18 19  1  1
 18 20  1  0
 20 21  1  1
 20 22  1  0
 22 23  1  1
 10  2  1  0
 22 12  1  0
M  END
>  <docking_score>  (2) 
-5.1479999999999997

$$$$

     RDKit          3D

 23 24  0  0  0  0  0  0  0  0999 V2000
    4.6708   12.9796    2.7079 C   0  0  0  0  0  0  0  0  0  0  0  0
    5.6527   11.8647    2.3556 C   0  0  1  0  0  0  0  0  0  0  0  0
    6.7380   12.4648    1.4386 C   0  0  0  0  0  0  0  0  0  0  0  0
    7.1140   13.7787    2.0904 C   0  0  2  0  0  0  0  0  0  0  0  0
    8.1473   14.3319    1.3350 O   0  0  0  0  0  0  0  0  0  0  0  0
    7.6328   13.6308    3.4973 C   0  0  2  0  0  0  0  0  0  0  0  0
    8.9256   13.1173    3.4451 O   0  0  0  0  0  0  0  0  0  0  0  0
    6.7547   12.7856    4.3880 C   0  0  1  0  0  0  0  0  0  0  0  0
    5.6298   13.5637    4.6909 O   0  0  0  0  0  0  0  0  0  0  0  0
    6.4199   11.5309    3.6348 C   0  0  1  0  0  0  0  0  0  0  0  0
    5.9001   10.4566    4.3618 N   0  0  0  0  0  0  0  0  0  0  0  0
    4.6077    9.9658    4.0710 C   0  0  1  0  0  0  0  0  0  0  0  0
    4.5355    8.5360    3.5982 C   0  0  2  0  0  0  0  0  0  0  0  0
    3.3006    8.3324    2.7809 C   0  0  0  0  0  0  0  0  0  0  0  0
    4.7450    7.6006    4.5790 O   0  0  0  0  0  0  0  0  0  0  0  0
    3.6966    7.4646    5.4851 C   0  0  2  0  0  0  0  0  0  0  0  0
    2.5349    8.1088    5.0623 O   0  0  0  0  0  0  0  0  0  0  0  0
    4.1842    8.0896    6.7921 C   0  0  2  0  0  0  0  0  0  0  0  0
    3.2603    7.9955    7.8103 O   0  0  0  0  0  0  0  0  0  0  0  0
    4.5455    9.5144    6.4769 C   0  0  2  0  0  0  0  0  0  0  0  0
    4.5435   10.3349    7.5851 O   0  0  0  0  0  0  0  0  0  0  0  0
    3.7550   10.0796    5.3164 C   0  0  1  0  0  0  0  0  0  0  0  0
    3.4299   11.4064    5.6178 O   0  0  0  0  0  0  0  0  0  0  0  0
  2  1  1  1
  2  3  1  0
  3  4  1  0
  4  5  1  6
  4  6  1  0
  6  7  1  6
  6  8  1  0
  8  9  1  6
  8 10  1  0
 10 11  1  1
 12 11  1  1
 12 13  1  0
 13 14  1  1
 13 15  1  0
 15 16  1  0
 16 17  1  6
 16 18  1  0
 18 19  1  1
 18 20  1  0
 20 21  1  1
 20 22  1  0
 22 23  1  1
 10  2  1  0
 22 12  1  0
M  END
>  <docking_score>  (3) 
-4.875

$$$$
