
     RDKit          3D

 14 15  0  0  0  0  0  0  0  0999 V2000
   15.0019   -0.8046   -6.1340 O   0  0  0  0  0  0  0  0  0  0  0  0
   14.5414   -1.3893   -5.1349 C   0  0  0  0  0  0  0  0  0  0  0  0
   13.6951   -0.7225   -4.2828 O   0  0  0  0  0  0  0  0  0  0  0  0
   14.9028   -2.7665   -4.8816 C   0  0  0  0  0  0  0  0  0  0  0  0
   14.3487   -3.8145   -5.5937 C   0  0  0  0  0  0  0  0  0  0  0  0
   14.7168   -5.1090   -5.3246 C   0  0  0  0  0  0  0  0  0  0  0  0
   15.6405   -5.4364   -4.3500 C   0  0  0  0  0  0  0  0  0  0  0  0
   16.1965   -4.4133   -3.6384 C   0  0  0  0  0  0  0  0  0  0  0  0
   15.8336   -3.1103   -3.9010 C   0  0  0  0  0  0  0  0  0  0  0  0
   16.2993   -1.9263   -3.2715 N   0  0  0  0  0  0  0  0  0  0  0  0
   17.5282   -1.7523   -2.5822 C   0  0  0  0  0  0  0  0  0  0  0  0
   18.2695   -2.7001   -2.0227 C   0  0  0  0  0  0  0  0  0  0  0  0
   18.0163   -4.1369   -1.9736 C   0  0  0  0  0  0  0  0  0  0  0  0
   17.1678   -4.8814   -2.6261 C   0  0  0  0  0  0  0  0  0  0  0  0
  1  2  2  0
  2  3  1  0
  2  4  1  0
  4  5  2  0
  5  6  1  0
  6  7  2  0
  7  8  1  0
  8  9  2  0
  9 10  1  0
 10 11  1  0
 11 12  2  0
 12 13  1  0
 13 14  2  0
  9  4  1  0
 14  8  1  0
M  END
>  <docking_score>  (1) 
-4.9279999999999999

$$$$

     RDKit          3D

 14 15  0  0  0  0  0  0  0  0999 V2000
   14.4076   -6.4821   -5.6024 O   0  0  0  0  0  0  0  0  0  0  0  0
   15.5207   -5.9566   -5.7945 C   0  0  0  0  0  0  0  0  0  0  0  0
   15.9769   -5.7718   -7.0769 O   0  0  0  0  0  0  0  0  0  0  0  0
   16.3231   -5.5457   -4.6636 C   0  0  0  0  0  0  0  0  0  0  0  0
   17.3498   -6.3283   -4.1679 C   0  0  0  0  0  0  0  0  0  0  0  0
   18.0896   -5.9046   -3.0924 C   0  0  0  0  0  0  0  0  0  0  0  0
   17.8597   -4.7001   -2.4548 C   0  0  0  0  0  0  0  0  0  0  0  0
   16.8498   -3.9161   -2.9320 C   0  0  0  0  0  0  0  0  0  0  0  0
   16.1013   -4.3326   -4.0112 C   0  0  0  0  0  0  0  0  0  0  0  0
   15.0218   -3.6603   -4.6418 N   0  0  0  0  0  0  0  0  0  0  0  0
   14.7595   -2.2651   -4.6275 C   0  0  0  0  0  0  0  0  0  0  0  0
   15.1734   -1.3854   -3.7243 C   0  0  0  0  0  0  0  0  0  0  0  0
   15.9887   -1.6222   -2.5368 C   0  0  0  0  0  0  0  0  0  0  0  0
   16.6963   -2.6555   -2.1740 C   0  0  0  0  0  0  0  0  0  0  0  0
  1  2  2  0
  2  3  1  0
  2  4  1  0
  4  5  2  0
  5  6  1  0
  6  7  2  0
  7  8  1  0
  8  9  2  0
  9 10  1  0
 10 11  1  0
 11 12  2  0
 12 13  1  0
 13 14  2  0
  9  4  1  0
 14  8  1  0
M  END
>  <docking_score>  (2) 
-4.835

$$$$

     RDKit          3D

 14 15  0  0  0  0  0  0  0  0999 V2000
   13.5141   -5.3602   -5.9672 O   0  0  0  0  0  0  0  0  0  0  0  0
   14.4031   -4.5357   -6.2536 C   0  0  0  0  0  0  0  0  0  0  0  0
   14.9488   -4.5295   -7.5142 O   0  0  0  0  0  0  0  0  0  0  0  0
   14.8526   -3.5916   -5.2545 C   0  0  0  0  0  0  0  0  0  0  0  0
   14.2483   -2.3596   -5.0832 C   0  0  0  0  0  0  0  0  0  0  0  0
   14.7033   -1.4898   -4.1240 C   0  0  0  0  0  0  0  0  0  0  0  0
   15.7664   -1.7843   -3.2914 C   0  0  0  0  0  0  0  0  0  0  0  0
   16.3736   -2.9964   -3.4480 C   0  0  0  0  0  0  0  0  0  0  0  0
   15.9243   -3.8767   -4.4081 C   0  0  0  0  0  0  0  0  0  0  0  0
   16.4240   -5.1692   -4.7156 N   0  0  0  0  0  0  0  0  0  0  0  0
   17.1591   -6.0273   -3.8560 C   0  0  0  0  0  0  0  0  0  0  0  0
   17.8798   -5.6712   -2.8002 C   0  0  0  0  0  0  0  0  0  0  0  0
   18.0973   -4.3317   -2.2624 C   0  0  0  0  0  0  0  0  0  0  0  0
   17.4951   -3.2012   -2.5058 C   0  0  0  0  0  0  0  0  0  0  0  0
  1  2  2  0
  2  3  1  0
  2  4  1  0
  4  5  2  0
  5  6  1  0
  6  7  2  0
  7  8  1  0
  8  9  2  0
  9 10  1  0
 10 11  1  0
 11 12  2  0
 12 13  1  0
 13 14  2  0
  9  4  1  0
 14  8  1  0
M  END
>  <docking_score>  (3) 
-4.7949999999999999

$$$$
