
     RDKit          3D

 23 25  0  0  0  0  0  0  0  0999 V2000
   15.5597   -2.4924   -8.0363 C   0  0  0  0  0  0  0  0  0  0  0  0
   15.5532   -2.1863   -6.5679 C   0  0  0  0  0  0  0  0  0  0  0  0
   14.6201   -1.1461   -6.0227 C   0  0  0  0  0  0  0  0  0  0  0  0
   14.6137   -0.8400   -4.5542 C   0  0  0  0  0  0  0  0  0  0  0  0
   13.6806    0.2002   -4.0090 O   0  0  0  0  0  0  0  0  0  0  0  0
   15.5403   -1.5742   -3.6310 C   0  0  0  0  0  0  0  0  0  0  0  0
   15.5339   -1.2681   -2.1626 O   0  0  0  0  0  0  0  0  0  0  0  0
   16.4734   -2.6144   -4.1762 C   0  0  0  0  0  0  0  0  0  0  0  0
   17.4001   -3.3486   -3.2530 O   0  0  0  0  0  0  0  0  0  0  0  0
   16.4799   -2.9205   -5.6446 C   0  0  0  0  0  0  0  0  0  0  0  0
   17.4130   -3.9607   -6.1898 N   0  0  0  0  0  0  0  0  0  0  0  0
   17.1591   -5.4135   -5.9161 C   0  0  0  0  0  0  0  0  0  0  0  0
   18.2702   -6.3499   -6.2884 C   0  0  0  0  0  0  0  0  0  0  0  0
   18.3243   -7.8417   -6.1428 C   0  0  0  0  0  0  0  0  0  0  0  0
   19.5893   -8.4962   -6.6134 O   0  0  0  0  0  0  0  0  0  0  0  0
   17.2806   -8.7658   -5.5889 C   0  0  0  0  0  0  0  0  0  0  0  0
   15.9250   -8.4261   -5.0437 O   0  0  0  0  0  0  0  0  0  0  0  0
   17.1113   -7.4881   -5.6607 C   0  0  0  0  0  0  0  0  0  0  0  0
   16.7388   -9.6189   -5.2591 O   0  0  0  0  0  0  0  0  0  0  0  0
   16.4502   -6.9309   -5.4391 C   0  0  0  0  0  0  0  0  0  0  0  0
   14.6635   -7.8699   -4.5636 O   0  0  0  0  0  0  0  0  0  0  0  0
   15.8276   -5.7378   -5.3061 C   0  0  0  0  0  0  0  0  0  0  0  0
   15.2785   -7.0786   -4.9179 O   0  0  0  0  0  0  0  0  0  0  0  0
  2  1  1  0
  2  3  1  0
  3  4  1  0
  4  5  1  0
  4  6  1  0
  6  7  1  0
  6  8  1  0
  8  9  1  0
  8 10  1  0
 10 11  1  0
 12 11  1  0
 12 13  1  0
 13 14  1  0
 14 15  1  0
 14 16  1  0
 16 17  1  0
 14 18  1  0
 18 19  1  0
 18 20  1  0
 20 21  1  0
 20 22  1  0
 22 23  1  0
 10  2  1  0
 22 12  1  0
 23 17  1  0
M  END
>  <docking_score>  (1) 
-5.899

$$$$

     RDKit          3D

 23 25  0  0  0  0  0  0  0  0999 V2000
    3.5681   13.4242    4.7401 C   0  0  0  0  0  0  0  0  0  0  0  0
    4.8483   13.6563    3.9936 C   0  0  0  0  0  0  0  0  0  0  0  0
    5.7804   14.7495    4.4250 C   0  0  0  0  0  0  0  0  0  0  0  0
    7.0606   14.9815    3.6784 C   0  0  0  0  0  0  0  0  0  0  0  0
    7.9927   16.0747    4.1098 O   0  0  0  0  0  0  0  0  0  0  0  0
    7.4087   14.1204    2.5007 C   0  0  0  0  0  0  0  0  0  0  0  0
    8.6889   14.3524    1.7542 O   0  0  0  0  0  0  0  0  0  0  0  0
    6.4766   13.0271    2.0694 C   0  0  0  0  0  0  0  0  0  0  0  0
    6.8248   12.1660    0.8915 O   0  0  0  0  0  0  0  0  0  0  0  0
    5.1964   12.7950    2.8158 C   0  0  0  0  0  0  0  0  0  0  0  0
    4.2643   11.7018    2.3845 N   0  0  0  0  0  0  0  0  0  0  0  0
    4.4205   10.3189    2.9439 C   0  0  0  0  0  0  0  0  0  0  0  0
    3.4535    9.2949    2.4278 C   0  0  0  0  0  0  0  0  0  0  0  0
    3.3502    7.8420    2.7857 C   0  0  0  0  0  0  0  0  0  0  0  0
    2.2651    7.0756    2.0890 O   0  0  0  0  0  0  0  0  0  0  0  0
    4.1884    7.0540    3.7482 C   0  0  0  0  0  0  0  0  0  0  0  0
    5.3371    7.5245    4.5905 O   0  0  0  0  0  0  0  0  0  0  0  0
    4.3799    8.3112    3.5262 C   0  0  0  0  0  0  0  0  0  0  0  0
    4.6090    6.2828    4.3467 O   0  0  0  0  0  0  0  0  0  0  0  0
    4.9553    8.9205    3.8333 C   0  0  0  0  0  0  0  0  0  0  0  0
    6.4153    8.1952    5.3108 O   0  0  0  0  0  0  0  0  0  0  0  0
    5.5232   10.1427    3.9454 C   0  0  0  0  0  0  0  0  0  0  0  0
    5.9310    8.8990    4.6783 O   0  0  0  0  0  0  0  0  0  0  0  0
  2  1  1  0
  2  3  1  0
  3  4  1  0
  4  5  1  0
  4  6  1  0
  6  7  1  0
  6  8  1  0
  8  9  1  0
  8 10  1  0
 10 11  1  0
 12 11  1  0
 12 13  1  0
 13 14  1  0
 14 15  1  0
 14 16  1  0
 16 17  1  0
 14 18  1  0
 18 19  1  0
 18 20  1  0
 20 21  1  0
 20 22  1  0
 22 23  1  0
 10  2  1  0
 22 12  1  0
 23 17  1  0
M  END
>  <docking_score>  (2) 
-5.4569999999999999

$$$$

     RDKit          3D

 23 25  0  0  0  0  0  0  0  0999 V2000
    5.1660   12.7255    7.1058 C   0  0  0  0  0  0  0  0  0  0  0  0
    5.1902   11.7695    5.9501 C   0  0  0  0  0  0  0  0  0  0  0  0
    4.9662   10.3048    6.1836 C   0  0  0  0  0  0  0  0  0  0  0  0
    4.9905    9.3490    5.0279 C   0  0  0  0  0  0  0  0  0  0  0  0
    4.7665    7.8843    5.2613 O   0  0  0  0  0  0  0  0  0  0  0  0
    5.2386    9.8577    3.6388 C   0  0  0  0  0  0  0  0  0  0  0  0
    5.2628    8.9017    2.4831 O   0  0  0  0  0  0  0  0  0  0  0  0
    5.4625   11.3224    3.4054 C   0  0  0  0  0  0  0  0  0  0  0  0
    5.7107   11.8311    2.0162 O   0  0  0  0  0  0  0  0  0  0  0  0
    5.4383   12.2784    4.5610 C   0  0  0  0  0  0  0  0  0  0  0  0
    5.6622   13.7431    4.3276 N   0  0  0  0  0  0  0  0  0  0  0  0
    7.0584   14.2876    4.2647 C   0  0  0  0  0  0  0  0  0  0  0  0
    7.6270   14.7728    5.5652 C   0  0  0  0  0  0  0  0  0  0  0  0
    8.9789   15.3651    5.8319 C   0  0  0  0  0  0  0  0  0  0  0  0
    9.2494   15.7556    7.2547 O   0  0  0  0  0  0  0  0  0  0  0  0
   10.0964   15.6188    4.8638 C   0  0  0  0  0  0  0  0  0  0  0  0
   10.1377   15.3425    3.3900 O   0  0  0  0  0  0  0  0  0  0  0  0
    8.9705   15.0985    4.5061 C   0  0  0  0  0  0  0  0  0  0  0  0
   11.0183   15.8972    4.4138 O   0  0  0  0  0  0  0  0  0  0  0  0
    8.6321   14.8098    3.7322 C   0  0  0  0  0  0  0  0  0  0  0  0
    9.9564   14.9911    1.9847 O   0  0  0  0  0  0  0  0  0  0  0  0
    7.7015   14.2751    2.9096 C   0  0  0  0  0  0  0  0  0  0  0  0
    9.0719   14.7446    2.5204 O   0  0  0  0  0  0  0  0  0  0  0  0
  2  1  1  0
  2  3  1  0
  3  4  1  0
  4  5  1  0
  4  6  1  0
  6  7  1  0
  6  8  1  0
  8  9  1  0
  8 10  1  0
 10 11  1  0
 12 11  1  0
 12 13  1  0
 13 14  1  0
 14 15  1  0
 14 16  1  0
 16 17  1  0
 14 18  1  0
 18 19  1  0
 18 20  1  0
 20 21  1  0
 20 22  1  0
 22 23  1  0
 10  2  1  0
 22 12  1  0
 23 17  1  0
M  END
>  <docking_score>  (3) 
-5.1500000000000004

$$$$
