
     RDKit          3D

 63 67  0  0  0  0  0  0  0  0999 V2000
    9.8141    8.9911    6.0638 O   0  0  0  0  0  0  0  0  0  0  0  0
   10.4066    8.2597    6.8720 C   0  0  0  0  0  0  0  0  0  0  0  0
   10.0970    6.8771    6.9258 O   0  0  0  0  0  0  0  0  0  0  0  0
   11.4350    8.8409    7.7666 C   0  0  0  0  0  0  0  0  0  0  0  0
   10.7791    8.9799    9.1564 C   0  0  0  0  0  0  0  0  0  0  0  0
   10.7464   10.4970    9.3997 C   0  0  0  0  0  0  0  0  0  0  0  0
   11.5077   10.7204   10.6722 C   0  0  0  0  0  0  0  0  0  0  0  0
   10.6819   10.7727   11.9229 C   0  0  0  0  0  0  0  0  0  0  0  0
    9.6668   11.8655   11.9568 C   0  0  0  0  0  0  0  0  0  0  0  0
    8.3072   11.2437   11.4512 C   0  0  1  0  0  0  0  0  0  0  0  0
    7.2943   11.7659   12.5243 C   0  0  0  0  0  0  0  0  0  0  0  0
    6.0368   11.8793   11.9410 C   0  0  0  0  0  0  0  0  0  0  0  0
    5.1015   12.4003   12.9496 C   0  0  0  0  0  0  0  0  0  0  0  0
    4.4915   12.7568   13.6242 C   0  0  0  0  0  0  0  0  0  0  0  0
    3.5917   13.3105   14.6449 C   0  0  0  0  0  0  0  0  0  0  0  0
    2.2586   12.7832   14.7948 C   0  0  0  0  0  0  0  0  0  0  0  0
    4.0741   14.3242   15.3802 C   0  0  0  0  0  0  0  0  0  0  0  0
    3.1864   14.8382   16.3779 N   0  0  0  0  0  0  0  0  0  0  0  0
    3.6884   15.7927   17.3126 N   0  0  0  0  0  0  0  0  0  0  0  0
    4.1394   15.2636   18.3958 C   0  0  0  0  0  0  0  0  0  0  0  0
    4.7149   15.8822   19.5574 C   0  0  0  0  0  0  0  0  0  0  0  0
    5.4044   14.9198   15.2048 C   0  0  0  0  0  0  0  0  0  0  0  0
    6.0657   14.7661   13.8923 C   0  0  0  0  0  0  0  0  0  0  0  0
    7.0996   15.7487   13.4960 C   0  0  0  0  0  0  0  0  0  0  0  0
    7.6702   15.4300   12.2235 O   0  0  0  0  0  0  0  0  0  0  0  0
    7.7738   14.0662   11.9228 N   0  0  0  0  0  0  0  0  0  0  0  0
    7.8140   13.6361   10.6808 C   0  0  0  0  0  0  0  0  0  0  0  0
    7.9339   12.2582   10.2937 C   0  0  0  0  0  0  0  0  0  0  0  0
    7.7261   11.7121    9.1396 C   0  0  0  0  0  0  0  0  0  0  0  0
    7.3790   12.3986    7.9081 C   0  0  0  0  0  0  0  0  0  0  0  0
    7.7444   11.7814    6.7192 O   0  0  0  0  0  0  0  0  0  0  0  0
    6.9150   10.6019    6.6946 C   0  0  2  0  0  0  0  0  0  0  0  0
    7.0713   10.0927    5.3897 O   0  0  0  0  0  0  0  0  0  0  0  0
    6.1237    9.1967    5.0183 C   0  0  1  0  0  0  0  0  0  0  0  0
    5.0335    8.9653    5.9589 C   0  0  0  0  0  0  0  0  0  0  0  0
    4.9297    8.3825    7.0967 C   0  0  0  0  0  0  0  0  0  0  0  0
    3.5849    8.4545    7.6285 O   0  0  0  0  0  0  0  0  0  0  0  0
    3.0495    9.8389    7.5750 C   0  0  0  0  0  0  0  0  0  0  0  0
    3.0544   10.1692    6.2398 O   0  0  0  0  0  0  0  0  0  0  0  0
    3.5371   11.2030    5.4744 C   0  0  0  0  0  0  0  0  0  0  0  0
    4.7878   11.5919    5.8102 C   0  0  0  0  0  0  0  0  0  0  0  0
    5.5439   10.9897    6.8677 O   0  0  0  0  0  0  0  0  0  0  0  0
    5.5918   12.6325    5.2199 C   0  0  0  0  0  0  0  0  0  0  0  0
    6.5284   12.4993    4.3341 C   0  0  0  0  0  0  0  0  0  0  0  0
    7.0994   11.3350    3.6293 C   0  0  0  0  0  0  0  0  0  0  0  0
    5.9468   10.5054    2.9736 C   0  0  0  0  0  0  0  0  0  0  0  0
    5.5306    9.5351    3.6548 C   0  0  0  0  0  0  0  0  0  0  0  0
    4.5181    8.5408    3.4561 O   0  0  0  0  0  0  0  0  0  0  0  0
    3.9084    8.1901    2.2854 O   0  0  0  0  0  0  0  0  0  0  0  0
    3.0816    9.2421    1.6798 C   0  0  0  0  0  0  0  0  0  0  0  0
    2.9230   10.2182    2.4426 C   0  0  0  0  0  0  0  0  0  0  0  0
    2.6750   11.2885    3.1168 C   0  0  0  0  0  0  0  0  0  0  0  0
    2.8328   11.9004    4.3528 C   0  0  0  0  0  0  0  0  0  0  0  0
    2.2600   13.1241    4.3253 O   0  0  0  0  0  0  0  0  0  0  0  0
    2.6255   14.4656    4.2285 C   0  0  0  0  0  0  0  0  0  0  0  0
    3.7465   14.5714    3.2038 C   0  0  0  0  0  0  0  0  0  0  0  0
    4.0954   13.4612    2.4891 C   0  0  0  0  0  0  0  0  0  0  0  0
    5.1127   13.3478    1.4934 C   0  0  0  0  0  0  0  0  0  0  0  0
    6.1309   12.4400    1.6883 O   0  0  0  0  0  0  0  0  0  0  0  0
    5.8278   11.1785    1.6771 N   0  0  0  0  0  3  0  0  0  0  0  0
    6.2138   10.4739    0.7437 O   0  0  0  0  0  0  0  0  0  0  0  0
    7.0576   10.0121   -0.0796 C   0  0  0  0  0  0  0  0  0  0  0  0
    7.9374   11.0892   -0.4813 O   0  0  0  0  0  0  0  0  0  0  0  0
  1  2  2  0
  2  3  1  0
  2  4  1  0
  4  5  1  0
  5  6  1  0
  6  7  1  0
  7  8  1  0
  8  9  1  0
 10  9  1  1
 10 11  1  0
 11 12  2  3
 12 13  1  0
 13 14  3  0
 14 15  1  0
 15 16  1  0
 15 17  2  3
 17 18  1  0
 18 19  1  0
 19 20  2  3
 20 21  1  0
 17 22  1  0
 22 23  1  0
 23 24  1  0
 24 25  1  0
 25 26  1  0
 26 27  2  3
 27 28  1  0
 28 29  2  3
 29 30  1  0
 30 31  1  0
 32 31  1  6
 32 33  1  0
 34 33  1  1
 34 35  1  0
 35 36  2  3
 36 37  1  0
 37 38  1  0
 38 39  1  0
 39 40  1  0
 40 41  2  3
 41 42  1  0
 41 43  1  0
 43 44  2  3
 44 45  1  0
 45 46  1  0
 46 47  2  3
 47 48  1  0
 48 49  1  0
 49 50  1  0
 50 51  2  3
 51 52  1  0
 52 53  2  3
 53 54  1  0
 54 55  1  0
 55 56  1  0
 56 57  2  3
 57 58  1  0
 58 59  1  0
 59 60  1  0
 60 61  1  0
 61 62  1  0
 62 63  1  0
 28 10  1  0
 42 32  1  0
 47 34  1  0
 53 40  1  0
 60 46  1  0
M  CHG  1  60   1
M  RAD  1  60   2
M  END
>  <docking_score>  (1) 
40.591999999999999

$$$$
