
     RDKit          3D

 17 19  0  0  0  0  0  0  0  0999 V2000
   14.6956   -0.6161   -5.7820 C   0  0  0  0  0  0  0  0  0  0  0  0
   14.0675   -1.7435   -5.0175 O   0  0  0  0  0  0  0  0  0  0  0  0
   14.7262   -3.0908   -4.9916 C   0  0  0  0  0  0  0  0  0  0  0  0
   14.3540   -4.1274   -6.0099 C   0  0  0  0  0  0  0  0  0  0  0  0
   15.0127   -5.4748   -5.9840 C   0  0  0  0  0  0  0  0  0  0  0  0
   16.0436   -5.7855   -4.9398 C   0  0  0  0  0  0  0  0  0  0  0  0
   16.4159   -4.7489   -3.9214 C   0  0  0  0  0  0  0  0  0  0  0  0
   15.7572   -3.4016   -3.9474 C   0  0  0  0  0  0  0  0  0  0  0  0
   17.4469   -5.0598   -2.8772 C   0  0  0  0  0  0  0  0  0  0  0  0
   17.6075   -4.1575   -1.6897 O   0  0  0  0  0  0  0  0  0  0  0  0
   18.7284   -3.1615   -1.6506 C   0  0  0  0  0  0  0  0  0  0  0  0
   20.1149   -3.4142   -1.1370 C   0  0  0  0  0  0  0  0  0  0  0  0
   20.6204   -2.0953   -1.3919 C   0  0  0  0  0  0  0  0  0  0  0  0
   19.3726   -2.9170   -1.5254 C   0  0  0  0  0  0  0  0  0  0  0  0
   19.9074   -0.9162   -1.9848 C   0  0  0  0  0  0  0  0  0  0  0  0
   18.6596   -1.7379   -2.1183 C   0  0  0  0  0  0  0  0  0  0  0  0
   18.3174   -6.2729   -3.0204 O   0  0  0  0  0  0  0  0  0  0  0  0
  1  2  1  0
  2  3  1  0
  3  4  2  0
  4  5  1  0
  5  6  2  0
  6  7  1  0
  7  8  2  0
  7  9  1  0
  9 10  1  0
 10 11  1  0
 11 12  1  0
 12 13  2  0
 13 14  1  0
 13 15  1  0
 15 16  2  0
  9 17  2  0
  8  3  1  0
 16 11  1  0
 16 14  1  0
M  END
>  <docking_score>  (1) 
-4.9829999999999997

$$$$

     RDKit          3D

 17 19  0  0  0  0  0  0  0  0999 V2000
   20.3236   -7.9165   -3.8889 C   0  0  0  0  0  0  0  0  0  0  0  0
   19.2902   -7.8385   -4.9733 O   0  0  0  0  0  0  0  0  0  0  0  0
   17.9937   -7.1265   -4.7240 C   0  0  0  0  0  0  0  0  0  0  0  0
   16.7451   -7.5749   -5.4239 C   0  0  0  0  0  0  0  0  0  0  0  0
   15.4486   -6.8629   -5.1746 C   0  0  0  0  0  0  0  0  0  0  0  0
   15.4008   -5.7025   -4.2254 C   0  0  0  0  0  0  0  0  0  0  0  0
   16.6494   -5.2540   -3.5255 C   0  0  0  0  0  0  0  0  0  0  0  0
   17.9459   -5.9660   -3.7748 C   0  0  0  0  0  0  0  0  0  0  0  0
   16.6015   -4.0935   -2.5762 C   0  0  0  0  0  0  0  0  0  0  0  0
   16.9007   -2.7087   -3.0689 O   0  0  0  0  0  0  0  0  0  0  0  0
   16.1173   -2.1335   -4.2116 C   0  0  0  0  0  0  0  0  0  0  0  0
   14.8465   -1.3445   -4.1006 C   0  0  0  0  0  0  0  0  0  0  0  0
   14.6701   -1.1306   -5.5089 C   0  0  0  0  0  0  0  0  0  0  0  0
   15.6005   -1.7859   -4.5316 C   0  0  0  0  0  0  0  0  0  0  0  0
   15.5370   -1.5913   -6.6431 C   0  0  0  0  0  0  0  0  0  0  0  0
   16.4674   -2.2465   -5.6658 C   0  0  0  0  0  0  0  0  0  0  0  0
   16.2543   -4.3179   -1.1343 O   0  0  0  0  0  0  0  0  0  0  0  0
  1  2  1  0
  2  3  1  0
  3  4  2  0
  4  5  1  0
  5  6  2  0
  6  7  1  0
  7  8  2  0
  7  9  1  0
  9 10  1  0
 10 11  1  0
 11 12  1  0
 12 13  2  0
 13 14  1  0
 13 15  1  0
 15 16  2  0
  9 17  2  0
  8  3  1  0
 16 11  1  0
 16 14  1  0
M  END
>  <docking_score>  (2) 
-4.5599999999999996

$$$$

     RDKit          3D

 17 19  0  0  0  0  0  0  0  0999 V2000
   17.7509   -3.8864   -7.9704 C   0  0  0  0  0  0  0  0  0  0  0  0
   16.5697   -2.9661   -7.8824 O   0  0  0  0  0  0  0  0  0  0  0  0
   16.0789   -2.5015   -6.5432 C   0  0  0  0  0  0  0  0  0  0  0  0
   15.0199   -1.4427   -6.4585 C   0  0  0  0  0  0  0  0  0  0  0  0
   14.5291   -0.9782   -5.1193 C   0  0  0  0  0  0  0  0  0  0  0  0
   15.0975   -1.5725   -3.8649 C   0  0  0  0  0  0  0  0  0  0  0  0
   16.1566   -2.6314   -3.9495 C   0  0  0  0  0  0  0  0  0  0  0  0
   16.6473   -3.0959   -5.2888 C   0  0  0  0  0  0  0  0  0  0  0  0
   16.7250   -3.2257   -2.6950 C   0  0  0  0  0  0  0  0  0  0  0  0
   17.8879   -2.5677   -2.0134 O   0  0  0  0  0  0  0  0  0  0  0  0
   19.1843   -3.3067   -1.8612 C   0  0  0  0  0  0  0  0  0  0  0  0
   20.1728   -3.1327   -0.7465 C   0  0  0  0  0  0  0  0  0  0  0  0
   21.1178   -4.1034   -1.2206 C   0  0  0  0  0  0  0  0  0  0  0  0
   19.7935   -3.4911   -1.5692 C   0  0  0  0  0  0  0  0  0  0  0  0
   21.0440   -4.9619   -2.4485 C   0  0  0  0  0  0  0  0  0  0  0  0
   19.7197   -4.3495   -2.7971 C   0  0  0  0  0  0  0  0  0  0  0  0
   16.1304   -4.4780   -2.1222 O   0  0  0  0  0  0  0  0  0  0  0  0
  1  2  1  0
  2  3  1  0
  3  4  2  0
  4  5  1  0
  5  6  2  0
  6  7  1  0
  7  8  2  0
  7  9  1  0
  9 10  1  0
 10 11  1  0
 11 12  1  0
 12 13  2  0
 13 14  1  0
 13 15  1  0
 15 16  2  0
  9 17  2  0
  8  3  1  0
 16 11  1  0
 16 14  1  0
M  END
>  <docking_score>  (3) 
-4.4909999999999997

$$$$
