
     RDKit          3D

 55 54  0  0  0  0  0  0  0  0999 V2000
    6.8928   13.3842   11.9378 O   0  0  0  0  0  0  0  0  0  0  0  0
    7.3267   12.0497   11.4077 C   0  0  0  0  0  0  0  0  0  0  0  0
    6.3127   10.9690   11.1758 C   0  0  0  0  0  3  0  0  0  0  0  0
    5.8439   10.1220   12.3217 N   0  0  0  0  0  0  0  0  0  0  0  0
    4.3927   10.1101   12.7009 C   0  0  0  0  0  0  0  0  0  0  0  0
    3.9837    9.7188   14.0901 C   0  0  0  0  0  0  0  0  0  0  0  0
    4.1730   10.6795   15.2263 O   0  0  0  0  0  0  0  0  0  0  0  0
    3.3505   10.4894   11.6911 C   0  0  0  0  0  0  0  0  0  0  0  0
    2.4308   11.6436   11.9598 O   0  0  0  0  0  0  0  0  0  0  0  0
    3.2278    9.7146   10.4126 C   0  0  0  0  0  0  0  0  0  0  0  0
    2.4079   10.2597    9.2810 O   0  0  0  0  0  0  0  0  0  0  0  0
    3.9252    8.3947   10.2656 O   0  0  0  0  0  0  0  0  0  0  0  0
    3.7639    7.5974    9.0054 C   0  0  0  0  0  3  0  0  0  0  0  0
    2.9664    8.1533    7.8631 S   0  0  0  0  0  0  0  0  0  0  0  0
    2.7085    7.3116    6.6486 C   0  0  0  0  0  0  0  0  0  0  0  0
    2.4076    7.9658    5.3328 O   0  0  0  0  0  0  0  0  0  0  0  0
    2.7514    5.8156    6.7500 O   0  0  0  0  0  0  0  0  0  0  0  0
    3.2418    4.9991    5.5912 C   0  0  0  0  0  0  0  0  0  0  0  0
    2.2686    4.4782    4.5757 C   0  0  0  0  0  0  0  0  0  0  0  0
    4.7054    4.7036    5.4480 O   0  0  0  0  0  0  0  0  0  0  0  0
    5.5180    4.3365    6.6542 O   0  0  0  0  0  0  0  0  0  0  0  0
    7.0156    4.3172    6.5721 C   0  0  0  0  0  0  0  0  0  0  0  0
    7.7989    5.5629    6.8635 S   0  0  0  0  0  0  0  0  0  0  0  0
    8.4281    6.3331    5.7406 O   0  0  0  0  0  0  0  0  0  0  0  0
    9.3055    5.6296    4.7479 C   0  0  0  0  0  0  0  0  0  0  0  0
    9.4494    4.1375    4.7992 O   0  0  0  0  0  0  0  0  0  0  0  0
   10.0389    6.4184    3.7039 C   0  0  0  0  0  0  0  0  0  0  0  0
   10.4479    7.8342    3.9834 O   0  0  0  0  0  0  0  0  0  0  0  0
    9.4697    8.9524    3.7762 S   0  0  2  0  0  0  0  0  0  0  0  0
    9.7662    8.9393    2.3059 O   0  0  0  0  0  0  0  0  0  0  0  0
    9.1732    8.9654    5.2466 O   0  0  0  0  0  0  0  0  0  0  0  0
    8.4915   10.0705    3.5690 O   0  0  0  0  0  0  0  0  0  0  0  0
    8.6859   11.3780    4.2780 C   0  0  0  0  0  3  0  0  0  0  0  0
    8.1778   11.5547    5.6782 O   0  0  0  0  0  0  0  0  0  0  0  0
    6.9523   10.8171    6.1301 S   0  0  0  0  0  0  0  0  0  0  0  0
    5.8814   11.5386    6.8933 O   0  0  0  0  0  0  0  0  0  0  0  0
    5.2997   12.8097    6.3494 O   0  0  0  0  0  0  0  0  0  0  0  0
    6.1981   13.8461    5.7420 O   0  0  0  0  0  0  0  0  0  0  0  0
    5.7693   14.5784    4.5051 C   0  0  0  0  0  0  0  0  0  0  0  0
    4.4156   14.3212    3.9126 O   0  0  0  0  0  0  0  0  0  0  0  0
    6.6944   15.5680    3.8608 C   0  0  0  0  0  3  0  0  0  0  0  0
    7.5949   15.1347    2.7422 O   0  0  0  0  0  0  0  0  0  0  0  0
    7.0679   15.0638    1.3397 C   0  0  0  0  0  3  0  0  0  0  0  0
    6.2246   13.8989    0.9133 C   0  0  0  0  0  0  0  0  0  0  0  0
    6.1936   12.6511    1.7453 O   0  0  0  0  0  0  0  0  0  0  0  0
    6.6560   11.3489    1.1617 C   0  0  0  0  0  0  0  0  0  0  0  0
    7.9432   11.2860    0.3942 S   0  0  0  0  0  0  0  0  0  0  0  0
    5.8311   10.1097    1.3456 C   0  0  0  0  0  0  0  0  0  0  0  0
    4.3341   10.1915    1.2997 O   0  0  0  0  0  0  0  0  0  0  0  0
    3.5176    9.6362    2.4288 C   0  0  0  0  0  0  0  0  0  0  0  0
    2.2722   10.3445    2.8729 S   0  0  0  0  0  0  0  0  0  0  0  0
    2.2758   11.1431    4.1426 C   0  0  0  0  0  3  0  0  0  0  0  0
    2.9103   10.5811    5.3803 O   0  0  0  0  0  0  0  0  0  0  0  0
    3.9465    8.3725    3.1139 C   0  0  0  0  0  3  0  0  0  0  0  0
    4.3473    8.4018    4.5591 O   0  0  0  0  0  0  0  0  0  0  0  0
  1  2  1  0
  2  3  1  0
  3  4  1  0
  4  5  1  0
  5  6  1  0
  6  7  1  0
  5  8  1  0
  8  9  1  0
  8 10  1  0
 10 11  1  0
 10 12  1  0
 12 13  1  0
 13 14  1  0
 14 15  1  0
 15 16  1  0
 15 17  1  0
 17 18  1  0
 18 19  1  0
 18 20  1  0
 20 21  1  0
 21 22  1  0
 22 23  1  0
 23 24  1  0
 24 25  1  0
 25 26  1  0
 25 27  1  0
 27 28  1  0
 28 29  1  0
 29 30  1  0
 29 31  1  0
 29 32  1  0
 32 33  1  0
 33 34  1  0
 34 35  1  0
 35 36  1  0
 36 37  1  0
 37 38  1  0
 38 39  1  0
 39 40  1  0
 39 41  1  0
 41 42  1  0
 42 43  1  0
 43 44  1  0
 44 45  1  0
 45 46  1  0
 46 47  1  0
 46 48  1  0
 48 49  1  0
 49 50  1  0
 50 51  1  0
 51 52  1  0
 52 53  1  0
 50 54  1  0
 54 55  1  0
M  RAD  7   3   2  13   2  33   2  41   2  43   2  52   2  54   2
M  END
>  <docking_score>  (1) 
25.911999999999999

$$$$

     RDKit          3D

 55 54  0  0  0  0  0  0  0  0999 V2000
    4.9370   13.5861   17.5591 O   0  0  0  0  0  0  0  0  0  0  0  0
    4.4376   14.9412   17.1534 C   0  0  0  0  0  0  0  0  0  0  0  0
    4.8607   15.5348   15.8425 C   0  0  0  0  0  3  0  0  0  0  0  0
    6.1227   15.0676   15.1799 N   0  0  0  0  0  0  0  0  0  0  0  0
    6.3685   15.3757   13.7326 C   0  0  0  0  0  0  0  0  0  0  0  0
    5.2586   15.9195   12.8827 C   0  0  0  0  0  0  0  0  0  0  0  0
    4.1033   15.0405   12.5052 O   0  0  0  0  0  0  0  0  0  0  0  0
    7.7240   15.1399   13.1353 C   0  0  0  0  0  0  0  0  0  0  0  0
    8.2368   16.0481   12.0572 O   0  0  0  0  0  0  0  0  0  0  0  0
    8.5669   13.9960   13.6162 C   0  0  0  0  0  0  0  0  0  0  0  0
    9.6954   14.2459   14.5721 O   0  0  0  0  0  0  0  0  0  0  0  0
    8.2811   12.6022   13.1410 O   0  0  0  0  0  0  0  0  0  0  0  0
    7.0248   12.3143   12.3737 C   0  0  0  0  0  3  0  0  0  0  0  0
    6.5062   10.9097   12.2837 S   0  0  0  0  0  0  0  0  0  0  0  0
    5.7503   10.4658   11.0665 C   0  0  0  0  0  0  0  0  0  0  0  0
    6.4226   10.4631    9.7256 O   0  0  0  0  0  0  0  0  0  0  0  0
    4.3219   10.0247   11.1902 O   0  0  0  0  0  0  0  0  0  0  0  0
    3.3412   10.3443   10.1012 C   0  0  0  0  0  0  0  0  0  0  0  0
    2.3590   11.4636   10.2813 C   0  0  0  0  0  0  0  0  0  0  0  0
    3.3428    9.5447    8.8321 O   0  0  0  0  0  0  0  0  0  0  0  0
    2.9869   10.2016    7.5314 O   0  0  0  0  0  0  0  0  0  0  0  0
    4.0214   10.3418    6.4542 C   0  0  0  0  0  0  0  0  0  0  0  0
    4.2324    9.2315    5.4679 S   0  0  0  0  0  0  0  0  0  0  0  0
    4.2227    7.8049    5.9312 O   0  0  0  0  0  0  0  0  0  0  0  0
    5.3039    6.8647    5.4871 C   0  0  0  0  0  0  0  0  0  0  0  0
    5.0215    5.3957    5.3761 O   0  0  0  0  0  0  0  0  0  0  0  0
    6.6675    7.3936    5.1541 C   0  0  0  0  0  0  0  0  0  0  0  0
    7.8288    6.4517    5.0349 O   0  0  0  0  0  0  0  0  0  0  0  0
    7.9500    5.5586    3.8359 S   0  0  2  0  0  0  0  0  0  0  0  0
    9.3516    6.0452    3.6152 O   0  0  0  0  0  0  0  0  0  0  0  0
    6.5484    5.0720    4.0566 O   0  0  0  0  0  0  0  0  0  0  0  0
    8.0713    4.6655    2.6369 O   0  0  0  0  0  0  0  0  0  0  0  0
    7.0035    4.6750    1.5835 C   0  0  0  0  0  3  0  0  0  0  0  0
    7.1215    5.5945    0.4042 O   0  0  0  0  0  0  0  0  0  0  0  0
    7.3021    5.0284   -0.9731 S   0  0  0  0  0  0  0  0  0  0  0  0
    7.5095    3.5542   -1.1568 O   0  0  0  0  0  0  0  0  0  0  0  0
    8.2220    3.0429   -2.3737 O   0  0  0  0  0  0  0  0  0  0  0  0
    9.3737    3.8137   -2.9477 O   0  0  0  0  0  0  0  0  0  0  0  0
   10.5397    3.0847   -3.5469 C   0  0  0  0  0  0  0  0  0  0  0  0
   11.7857    3.8354   -3.9130 O   0  0  0  0  0  0  0  0  0  0  0  0
   10.4597    1.6051   -3.7800 C   0  0  0  0  0  3  0  0  0  0  0  0
   11.4487    0.9341   -4.6864 O   0  0  0  0  0  0  0  0  0  0  0  0
   12.2589   -0.2247   -4.1857 C   0  0  0  0  0  3  0  0  0  0  0  0
   13.1661   -0.9660   -5.1224 C   0  0  0  0  0  0  0  0  0  0  0  0
   14.5005   -1.4558   -4.6433 O   0  0  0  0  0  0  0  0  0  0  0  0
   14.7146   -2.9182   -4.3868 C   0  0  0  0  0  0  0  0  0  0  0  0
   13.7492   -3.9255   -4.9374 S   0  0  0  0  0  0  0  0  0  0  0  0
   15.8942   -3.3731   -3.5795 C   0  0  0  0  0  0  0  0  0  0  0  0
   16.5291   -4.7023   -3.8628 O   0  0  0  0  0  0  0  0  0  0  0  0
   17.6829   -4.7942   -4.8170 C   0  0  0  0  0  0  0  0  0  0  0  0
   18.7208   -5.8622   -4.6381 S   0  0  0  0  0  0  0  0  0  0  0  0
   18.3032   -7.2927   -4.4668 C   0  0  0  0  0  3  0  0  0  0  0  0
   19.2774   -8.3975   -4.7504 O   0  0  0  0  0  0  0  0  0  0  0  0
   17.7987   -3.8180   -5.9500 C   0  0  0  0  0  3  0  0  0  0  0  0
   16.7259   -3.7528   -6.9964 O   0  0  0  0  0  0  0  0  0  0  0  0
  1  2  1  0
  2  3  1  0
  3  4  1  0
  4  5  1  0
  5  6  1  0
  6  7  1  0
  5  8  1  0
  8  9  1  0
  8 10  1  0
 10 11  1  0
 10 12  1  0
 12 13  1  0
 13 14  1  0
 14 15  1  0
 15 16  1  0
 15 17  1  0
 17 18  1  0
 18 19  1  0
 18 20  1  0
 20 21  1  0
 21 22  1  0
 22 23  1  0
 23 24  1  0
 24 25  1  0
 25 26  1  0
 25 27  1  0
 27 28  1  0
 28 29  1  0
 29 30  1  0
 29 31  1  0
 29 32  1  0
 32 33  1  0
 33 34  1  0
 34 35  1  0
 35 36  1  0
 36 37  1  0
 37 38  1  0
 38 39  1  0
 39 40  1  0
 39 41  1  0
 41 42  1  0
 42 43  1  0
 43 44  1  0
 44 45  1  0
 45 46  1  0
 46 47  1  0
 46 48  1  0
 48 49  1  0
 49 50  1  0
 50 51  1  0
 51 52  1  0
 52 53  1  0
 50 54  1  0
 54 55  1  0
M  RAD  7   3   2  13   2  33   2  41   2  43   2  52   2  54   2
M  END
>  <docking_score>  (2) 
28.747

$$$$
