
     RDKit          3D

 30 29  0  0  0  0  0  0  0  0999 V2000
   18.2932   -2.4558   -8.6890 C   0  0  0  0  0  0  0  0  0  0  0  0
   19.5968   -3.1936   -8.5984 C   0  0  0  0  0  0  0  0  0  0  0  0
   19.5896   -4.3207   -7.6140 C   0  0  0  0  0  0  0  0  0  0  0  0
   20.7400   -2.2351   -8.3874 C   0  0  0  0  0  0  0  0  0  0  0  0
   20.4367   -1.1965   -7.3295 C   0  0  0  0  0  0  0  0  0  0  0  0
   20.2847   -1.9604   -6.0136 C   0  0  0  0  0  0  0  0  0  0  0  0
   19.4940   -1.1921   -5.0203 C   0  0  1  0  0  0  0  0  0  0  0  0
   18.6618   -0.0858   -5.5547 C   0  0  0  0  0  0  0  0  0  0  0  0
   18.8004   -2.0282   -4.0249 C   0  0  0  0  0  3  0  0  0  0  0  0
   17.8682   -3.0647   -4.5428 C   0  0  0  0  0  0  0  0  0  0  0  0
   16.4469   -2.7587   -4.2362 C   0  0  0  0  0  0  0  0  0  0  0  0
   15.6314   -2.5559   -5.4716 C   0  0  2  0  0  0  0  0  0  0  0  0
   14.7940   -1.2977   -5.4187 C   0  0  0  0  0  0  0  0  0  0  0  0
   14.7809   -3.7852   -5.6989 C   0  0  0  0  0  0  0  0  0  0  0  0
   15.5496   -5.0369   -5.5139 C   0  0  0  0  0  0  0  0  0  0  0  0
   17.0045   -4.9750   -5.2620 C   0  0  0  0  0  2  0  0  0  0  0  0
   14.8822   -6.1833   -5.5844 C   0  0  0  0  0  0  0  0  0  0  0  0
   15.5464   -7.5069   -5.4148 C   0  0  0  0  0  0  0  0  0  0  0  0
   16.8344   -7.4551   -6.2091 C   0  0  0  0  0  0  0  0  0  0  0  0
   17.6707   -8.6531   -5.8316 C   0  0  2  0  0  0  0  0  0  0  0  0
   16.9382   -9.8170   -5.7134 O   0  0  0  0  0  0  0  0  0  0  0  0
   18.3498   -8.3543   -4.5159 C   0  0  0  0  0  0  0  0  0  0  0  0
   19.8304   -8.1435   -4.7300 C   0  0  1  0  0  0  0  0  0  0  0  0
   20.0254   -7.2350   -5.9277 C   0  0  0  0  0  0  0  0  0  0  0  0
   20.3510   -7.5516   -3.5640 O   0  0  0  0  0  0  0  0  0  0  0  0
   19.9042   -6.2566   -3.5320 N   0  0  0  0  0  0  0  0  0  0  0  0
   20.8198   -5.2700   -3.0736 C   0  0  0  0  0  0  0  0  0  0  0  0
   20.4609   -4.5223   -2.0458 C   0  0  0  0  0  0  0  0  0  0  0  0
   21.3723   -3.4814   -1.5271 C   0  0  0  0  0  0  0  0  0  0  0  0
   20.8302   -2.8468   -0.4176 O   0  0  0  0  0  0  0  0  0  0  0  0
  1  2  1  0
  2  3  1  0
  2  4  1  0
  4  5  1  0
  5  6  1  0
  6  7  1  0
  7  8  1  6
  7  9  1  0
  9 10  1  0
 10 11  1  0
 11 12  1  0
 12 13  1  1
 12 14  1  0
 14 15  1  0
 15 16  1  0
 15 17  2  3
 17 18  1  0
 18 19  1  0
 19 20  1  0
 20 21  1  1
 20 22  1  0
 22 23  1  0
 23 24  1  6
 23 25  1  0
 25 26  1  0
 26 27  1  0
 27 28  2  3
 28 29  1  0
 29 30  1  0
M  RAD  2   9   2  16   3
M  END
>  <docking_score>  (1) 
-2.9390000000000001

$$$$

     RDKit          3D

 30 29  0  0  0  0  0  0  0  0999 V2000
   13.8131   -2.6977   -6.1151 C   0  0  0  0  0  0  0  0  0  0  0  0
   15.2511   -2.4655   -6.4757 C   0  0  0  0  0  0  0  0  0  0  0  0
   16.0695   -3.7164   -6.5450 C   0  0  0  0  0  0  0  0  0  0  0  0
   15.8612   -1.4114   -5.5886 C   0  0  0  0  0  0  0  0  0  0  0  0
   16.7908   -1.9976   -4.5484 C   0  0  0  0  0  0  0  0  0  0  0  0
   16.4385   -1.3126   -3.2275 C   0  0  0  0  0  0  0  0  0  0  0  0
   17.1994   -1.8871   -2.0904 C   0  0  1  0  0  0  0  0  0  0  0  0
   16.4530   -2.8066   -1.1963 C   0  0  0  0  0  0  0  0  0  0  0  0
   18.5448   -2.3698   -2.4475 C   0  0  0  0  0  3  0  0  0  0  0  0
   18.9998   -2.1353   -3.8438 C   0  0  0  0  0  0  0  0  0  0  0  0
   19.5799   -3.3530   -4.4672 C   0  0  0  0  0  0  0  0  0  0  0  0
   20.5038   -3.0271   -5.5953 C   0  0  2  0  0  0  0  0  0  0  0  0
   21.3653   -4.2013   -6.0025 C   0  0  0  0  0  0  0  0  0  0  0  0
   21.3391   -1.8279   -5.2076 C   0  0  0  0  0  0  0  0  0  0  0  0
   20.8816   -0.5896   -5.8780 C   0  0  0  0  0  0  0  0  0  0  0  0
   21.0066   -0.4593   -7.3448 C   0  0  0  0  0  2  0  0  0  0  0  0
   20.3686    0.3684   -5.1141 C   0  0  0  0  0  0  0  0  0  0  0  0
   19.8747    1.6587   -5.6736 C   0  0  0  0  0  0  0  0  0  0  0  0
   20.5816    2.7631   -4.9166 C   0  0  0  0  0  0  0  0  0  0  0  0
   20.3381    4.0638   -5.6419 C   0  0  2  0  0  0  0  0  0  0  0  0
   21.3822    4.9591   -5.5263 O   0  0  0  0  0  0  0  0  0  0  0  0
   19.0819    4.6857   -5.0791 C   0  0  0  0  0  0  0  0  0  0  0  0
   18.3820    5.4993   -6.1424 C   0  0  1  0  0  0  0  0  0  0  0  0
   17.4339    4.5941   -6.9037 C   0  0  0  0  0  0  0  0  0  0  0  0
   17.6763    6.5312   -5.4958 O   0  0  0  0  0  0  0  0  0  0  0  0
   17.5281    6.1619   -4.1846 N   0  0  0  0  0  0  0  0  0  0  0  0
   18.0109    7.0683   -3.2011 C   0  0  0  0  0  0  0  0  0  0  0  0
   19.2044    7.6030   -3.3847 C   0  0  0  0  0  0  0  0  0  0  0  0
   19.7565    8.5513   -2.3953 C   0  0  0  0  0  0  0  0  0  0  0  0
   19.0629    8.4846   -1.1944 O   0  0  0  0  0  0  0  0  0  0  0  0
  1  2  1  0
  2  3  1  0
  2  4  1  0
  4  5  1  0
  5  6  1  0
  6  7  1  0
  7  8  1  6
  7  9  1  0
  9 10  1  0
 10 11  1  0
 11 12  1  0
 12 13  1  1
 12 14  1  0
 14 15  1  0
 15 16  1  0
 15 17  2  3
 17 18  1  0
 18 19  1  0
 19 20  1  0
 20 21  1  1
 20 22  1  0
 22 23  1  0
 23 24  1  1
 23 25  1  0
 25 26  1  0
 26 27  1  0
 27 28  2  3
 28 29  1  0
 29 30  1  0
M  RAD  2   9   2  16   3
M  END
>  <docking_score>  (2) 
-2.7959999999999998

$$$$

     RDKit          3D

 30 29  0  0  0  0  0  0  0  0999 V2000
    5.2161    6.0630    5.8933 C   0  0  0  0  0  0  0  0  0  0  0  0
    3.9246    6.6676    5.4261 C   0  0  0  0  0  0  0  0  0  0  0  0
    3.3241    7.6393    6.3928 C   0  0  0  0  0  0  0  0  0  0  0  0
    2.9586    5.5958    4.9922 C   0  0  0  0  0  0  0  0  0  0  0  0
    2.2576    5.9389    3.6958 C   0  0  0  0  0  0  0  0  0  0  0  0
    2.4396    7.4442    3.4984 C   0  0  0  0  0  0  0  0  0  0  0  0
    3.7520    7.7632    2.8836 C   0  0  1  0  0  0  0  0  0  0  0  0
    4.3060    6.7502    1.9514 C   0  0  0  0  0  0  0  0  0  0  0  0
    3.8670    9.1472    2.3916 C   0  0  0  0  0  3  0  0  0  0  0  0
    5.2379    9.6618    2.1317 C   0  0  0  0  0  0  0  0  0  0  0  0
    5.3744   11.1073    2.4475 C   0  0  0  0  0  0  0  0  0  0  0  0
    5.1611   11.3932    3.8984 C   0  0  2  0  0  0  0  0  0  0  0  0
    6.1731   10.7025    4.7848 C   0  0  0  0  0  0  0  0  0  0  0  0
    3.7443   11.0129    4.2648 C   0  0  0  0  0  0  0  0  0  0  0  0
    3.3490   11.5449    5.5888 C   0  0  0  0  0  0  0  0  0  0  0  0
    3.1606   12.9995    5.7695 C   0  0  0  0  0  2  0  0  0  0  0  0
    3.1780   10.6717    6.5751 C   0  0  0  0  0  0  0  0  0  0  0  0
    2.7807   11.0866    7.9505 C   0  0  0  0  0  0  0  0  0  0  0  0
    3.9939   10.8892    8.8347 C   0  0  0  0  0  0  0  0  0  0  0  0
    4.1010   12.0753    9.7614 C   0  0  2  0  0  0  0  0  0  0  0  0
    5.4019   12.4763    9.9895 O   0  0  0  0  0  0  0  0  0  0  0  0
    3.4553   11.7029   11.0751 C   0  0  0  0  0  0  0  0  0  0  0  0
    4.4978   11.6314   12.1662 C   0  0  1  0  0  0  0  0  0  0  0  0
    5.6988   10.8682   11.6437 C   0  0  0  0  0  0  0  0  0  0  0  0
    4.8529   12.9503   12.5055 O   0  0  0  0  0  0  0  0  0  0  0  0
    5.7606   12.8758   13.5292 N   0  0  0  0  0  0  0  0  0  0  0  0
    5.2968   13.2207   14.8283 C   0  0  0  0  0  0  0  0  0  0  0  0
    4.4561   12.3952   15.4249 C   0  0  0  0  0  0  0  0  0  0  0  0
    3.9413   12.7029   16.7753 C   0  0  0  0  0  0  0  0  0  0  0  0
    4.1829   11.6565   17.6553 O   0  0  0  0  0  0  0  0  0  0  0  0
  1  2  1  0
  2  3  1  0
  2  4  1  0
  4  5  1  0
  5  6  1  0
  6  7  1  0
  7  8  1  6
  7  9  1  0
  9 10  1  0
 10 11  1  0
 11 12  1  0
 12 13  1  1
 12 14  1  0
 14 15  1  0
 15 16  1  0
 15 17  2  3
 17 18  1  0
 18 19  1  0
 19 20  1  0
 20 21  1  1
 20 22  1  0
 22 23  1  0
 23 24  1  6
 23 25  1  0
 25 26  1  0
 26 27  1  0
 27 28  2  3
 28 29  1  0
 29 30  1  0
M  RAD  2   9   2  16   3
M  END
>  <docking_score>  (3) 
-1.107

$$$$
