
     RDKit          3D

 36 40  0  0  0  0  0  0  0  0999 V2000
    4.4635   11.0113   11.6293 C   0  0  0  0  0  0  0  0  0  0  0  0
    4.9692   12.4177   11.5021 C   0  0  0  0  0  0  0  0  0  0  0  0
    4.8860   12.9082   12.9171 C   0  0  0  0  0  0  0  0  0  0  0  0
    5.5095   13.6202   10.7864 C   0  0  0  0  0  3  0  0  0  0  0  0
    5.9910   14.4109    9.6061 C   0  0  0  0  0  0  0  0  0  0  0  0
    6.3303   14.6529    8.1652 C   0  0  0  0  0  0  0  0  0  0  0  0
    6.4689   14.3045    6.7129 C   0  0  0  0  0  3  0  0  0  0  0  0
    6.3828   13.4260    5.5001 C   0  0  0  0  0  0  0  0  0  0  0  0
    6.5214   13.0776    4.0478 C   0  0  0  0  0  0  0  0  0  0  0  0
    5.3217   13.1206    3.1484 C   0  0  0  0  0  0  0  0  0  0  0  0
    4.1094   13.9061    3.5522 C   0  0  0  0  0  3  0  0  0  0  0  0
    2.9003   13.1974    4.0870 C   0  0  0  0  0  3  0  0  0  0  0  0
    2.3526   13.5618    5.4351 O   0  0  0  0  0  0  0  0  0  0  0  0
    7.0036   15.6382    6.2821 C   0  0  0  0  0  0  0  0  0  0  0  0
    7.2479   15.5838    4.8031 C   0  0  0  0  0  3  0  0  0  0  0  0
    6.8643   14.2166    4.3198 C   0  0  0  0  0  0  0  0  0  0  0  0
    7.3816   14.9199    2.7693 C   0  0  0  0  0  0  0  0  0  0  0  0
    7.3094   14.0708    1.5348 C   0  0  0  0  0  3  0  0  0  0  0  0
    6.8793   12.6648    1.2381 N   0  0  0  0  0  0  0  0  0  0  0  0
    6.3429   11.5254    2.0531 C   0  0  0  0  0  0  0  0  0  0  0  0
    6.0711   10.3050    1.2245 C   0  0  0  0  0  0  0  0  0  0  0  0
    6.0147   11.3201    3.5023 C   0  0  0  0  0  0  0  0  0  0  0  0
    6.0868   12.1691    4.7368 C   0  0  0  0  0  0  0  0  0  0  0  0
    5.6322   10.7513    4.5548 C   0  0  0  0  0  0  0  0  0  0  0  0
    5.0975    9.4177    4.9855 C   0  0  0  0  0  0  0  0  0  0  0  0
    4.5752    8.3989    5.9546 C   0  0  0  0  0  0  0  0  0  0  0  0
    4.1556    7.8710    7.2946 C   0  0  0  0  0  0  0  0  0  0  0  0
    3.9113    7.9253    8.7735 C   0  0  0  0  0  0  0  0  0  0  0  0
    3.8845    8.5525   10.1358 C   0  0  0  0  0  0  0  0  0  0  0  0
    4.0798    9.6441   11.1460 C   0  0  0  0  0  0  0  0  0  0  0  0
    3.5983    8.8534   12.3263 C   0  0  0  0  0  0  0  0  0  0  0  0
    3.6845    9.7320   13.5390 C   0  0  0  0  0  0  0  0  0  0  0  0
    4.2192   11.0656   13.1082 C   0  0  0  0  0  0  0  0  0  0  0  0
    4.1330   10.1870   11.8955 C   0  0  0  0  0  0  0  0  0  0  0  0
    3.3029    9.3449   14.9370 C   0  0  0  0  0  0  0  0  0  0  0  0
    2.5517    8.0702   15.1837 C   0  0  0  0  0  2  0  0  0  0  0  0
  1  2  2  3
  2  3  1  0
  2  4  1  0
  4  5  1  0
  5  6  1  0
  6  7  1  0
  7  8  1  0
  8  9  1  0
  9 10  1  0
 10 11  1  0
 11 12  1  0
 12 13  1  0
  7 14  1  0
 14 15  1  0
 16 15  1  0
 16 17  1  0
 17 18  1  0
 18 19  1  0
 19 20  1  0
 20 21  1  0
 20 22  1  0
 23 22  1  0
 23 24  1  0
 24 25  1  0
 25 26  2  3
 26 27  1  0
 27 28  1  0
 28 29  2  3
 30 29  1  0
 30 31  1  0
 31 32  1  0
 33 32  1  0
 33 34  1  0
 32 35  1  0
 35 36  1  0
 30  1  1  0
 33  1  1  0
 16  8  1  0
 23  8  1  0
 31 34  2  0
M  RAD  7   4   2   7   2  11   2  12   2  15   2  18   2  36   3
M  END
>  <docking_score>  (1) 
-5.7279999999999998

$$$$
