
     RDKit          3D

 22 23  0  0  0  0  0  0  0  0999 V2000
   18.7404   -0.4519   -5.7292 C   0  0  0  0  0  0  0  0  0  0  0  0
   19.7301    0.4981   -5.0704 C   0  0  0  0  0  0  0  0  0  0  0  0
   20.8659   -0.2997   -4.4619 C   0  0  0  0  0  0  0  0  0  0  0  0
   20.7004   -0.5958   -3.0068 C   0  0  0  0  0  0  0  0  0  0  0  0
   20.2380   -2.0127   -2.7700 C   0  0  0  0  0  0  0  0  0  0  0  0
   19.1016   -2.1595   -2.2461 N   0  0  0  0  0  0  0  0  0  0  0  0
   18.5134   -3.3855   -1.9572 C   0  0  1  0  0  0  0  0  0  0  0  0
   17.0884   -3.4060   -1.9644 N   0  0  0  0  0  0  0  0  0  0  0  0
   16.1477   -3.0077   -2.8674 C   0  0  0  0  0  0  0  0  0  0  0  0
   16.0891   -2.9988   -4.1822 C   0  0  0  0  0  0  0  0  0  0  0  0
   14.8451   -2.4667   -4.8078 C   0  0  0  0  0  0  0  0  0  0  0  0
   14.8107   -1.0082   -4.8613 C   0  0  0  0  0  0  0  0  0  0  0  0
   13.7783   -0.3975   -4.4223 N   0  0  0  0  0  0  0  0  0  0  0  0
   17.2970   -3.5464   -4.8417 C   0  0  0  0  0  0  0  0  0  0  0  0
   17.5081   -4.9318   -5.0133 C   0  0  0  0  0  0  0  0  0  0  0  0
   17.4696   -6.0798   -5.3694 C   0  0  0  0  0  0  0  0  0  0  0  0
   18.3856   -7.0825   -4.7283 C   0  0  0  0  0  0  0  0  0  0  0  0
   18.7521   -6.7969   -3.4613 C   0  0  0  0  0  0  0  0  0  0  0  0
   18.2685   -5.5922   -2.8040 C   0  0  0  0  0  0  0  0  0  0  0  0
   19.0940   -4.5721   -2.6355 C   0  0  0  0  0  0  0  0  0  0  0  0
   18.2971   -2.8000   -5.2590 N   0  0  0  0  0  0  0  0  0  0  0  0
   18.6933   -1.5948   -5.3238 N   0  0  0  0  0  0  0  0  0  0  0  0
  1  2  1  0
  2  3  1  0
  3  4  1  0
  4  5  1  0
  5  6  2  3
  6  7  1  0
  7  8  1  6
  8  9  1  0
  9 10  2  3
 10 11  1  0
 11 12  1  0
 12 13  2  0
 10 14  1  0
 14 15  1  0
 15 16  2  3
 16 17  1  0
 17 18  2  3
 18 19  1  0
 19 20  2  3
 14 21  2  3
 21 22  1  0
  1 22  2  3
 20  7  1  0
M  END
>  <docking_score>  (1) 
-5.4790000000000001

$$$$

     RDKit          3D

 22 23  0  0  0  0  0  0  0  0999 V2000
   20.0318   -2.4438   -4.4585 C   0  0  0  0  0  0  0  0  0  0  0  0
   20.9194   -2.4978   -5.6935 C   0  0  0  0  0  0  0  0  0  0  0  0
   20.3679   -1.5636   -6.7517 C   0  0  0  0  0  0  0  0  0  0  0  0
   19.4950   -2.2284   -7.7659 C   0  0  0  0  0  0  0  0  0  0  0  0
   18.0307   -1.9836   -7.4947 C   0  0  0  0  0  0  0  0  0  0  0  0
   17.3293   -2.9911   -7.2107 N   0  0  0  0  0  0  0  0  0  0  0  0
   15.9681   -2.9567   -6.9301 C   0  0  1  0  0  0  0  0  0  0  0  0
   15.4869   -3.9857   -6.0696 N   0  0  0  0  0  0  0  0  0  0  0  0
   15.8720   -4.4417   -4.8437 C   0  0  0  0  0  0  0  0  0  0  0  0
   16.3697   -3.8665   -3.7697 C   0  0  0  0  0  0  0  0  0  0  0  0
   16.6634   -4.7413   -2.5990 C   0  0  0  0  0  0  0  0  0  0  0  0
   17.7680   -5.6654   -2.8387 C   0  0  0  0  0  0  0  0  0  0  0  0
   18.9647   -5.2614   -2.6482 N   0  0  0  0  0  0  0  0  0  0  0  0
   16.5485   -2.4019   -3.9001 C   0  0  0  0  0  0  0  0  0  0  0  0
   15.4901   -1.4866   -3.7127 C   0  0  0  0  0  0  0  0  0  0  0  0
   14.6259   -0.7830   -3.2606 C   0  0  0  0  0  0  0  0  0  0  0  0
   13.8132    0.0755   -4.1870 C   0  0  0  0  0  0  0  0  0  0  0  0
   13.6886   -0.3964   -5.4451 C   0  0  0  0  0  0  0  0  0  0  0  0
   14.3140   -1.6523   -5.8305 C   0  0  0  0  0  0  0  0  0  0  0  0
   15.3982   -1.6286   -6.5884 C   0  0  0  0  0  0  0  0  0  0  0  0
   17.6808   -1.8389   -4.2639 N   0  0  0  0  0  0  0  0  0  0  0  0
   18.8744   -2.1096   -4.6043 N   0  0  0  0  0  0  0  0  0  0  0  0
  1  2  1  0
  2  3  1  0
  3  4  1  0
  4  5  1  0
  5  6  2  3
  6  7  1  0
  7  8  1  1
  8  9  1  0
  9 10  2  3
 10 11  1  0
 11 12  1  0
 12 13  2  0
 10 14  1  0
 14 15  1  0
 15 16  2  3
 16 17  1  0
 17 18  2  3
 18 19  1  0
 19 20  2  3
 14 21  2  3
 21 22  1  0
  1 22  2  3
 20  7  1  0
M  END
>  <docking_score>  (2) 
-5.3920000000000003

$$$$

     RDKit          3D

 22 23  0  0  0  0  0  0  0  0999 V2000
   16.2472   -2.2744   -6.8906 C   0  0  0  0  0  0  0  0  0  0  0  0
   15.0198   -1.4338   -6.5697 C   0  0  0  0  0  0  0  0  0  0  0  0
   15.2740   -0.6313   -5.3096 C   0  0  0  0  0  0  0  0  0  0  0  0
   14.7497   -1.2625   -4.0609 C   0  0  0  0  0  0  0  0  0  0  0  0
   15.8453   -1.9274   -3.2639 C   0  0  0  0  0  0  0  0  0  0  0  0
   15.7721   -3.1782   -3.1309 N   0  0  0  0  0  0  0  0  0  0  0  0
   16.6890   -3.9571   -2.4342 C   0  0  1  0  0  0  0  0  0  0  0  0
   16.8184   -5.3057   -2.8764 N   0  0  0  0  0  0  0  0  0  0  0  0
   17.0433   -5.8780   -4.0933 C   0  0  0  0  0  0  0  0  0  0  0  0
   17.7497   -5.5330   -5.1489 C   0  0  0  0  0  0  0  0  0  0  0  0
   17.7359   -6.4618   -6.3147 C   0  0  0  0  0  0  0  0  0  0  0  0
   17.3218   -5.8149   -7.5562 C   0  0  0  0  0  0  0  0  0  0  0  0
   16.1507   -6.0436   -8.0120 N   0  0  0  0  0  0  0  0  0  0  0  0
   18.4729   -4.2495   -4.9951 C   0  0  0  0  0  0  0  0  0  0  0  0
   19.7110   -4.1494   -4.3242 C   0  0  0  0  0  0  0  0  0  0  0  0
   20.8687   -4.2035   -4.0031 C   0  0  0  0  0  0  0  0  0  0  0  0
   21.2938   -3.6414   -2.6769 C   0  0  0  0  0  0  0  0  0  0  0  0
   20.3429   -3.6482   -1.7195 C   0  0  0  0  0  0  0  0  0  0  0  0
   19.0148   -4.1735   -1.9982 C   0  0  0  0  0  0  0  0  0  0  0  0
   18.0058   -3.3316   -2.1512 C   0  0  0  0  0  0  0  0  0  0  0  0
   17.9961   -3.0944   -5.4072 N   0  0  0  0  0  0  0  0  0  0  0  0
   16.9903   -2.5675   -5.9771 N   0  0  0  0  0  0  0  0  0  0  0  0
  1  2  1  0
  2  3  1  0
  3  4  1  0
  4  5  1  0
  5  6  2  3
  6  7  1  0
  7  8  1  6
  8  9  1  0
  9 10  2  3
 10 11  1  0
 11 12  1  0
 12 13  2  0
 10 14  1  0
 14 15  1  0
 15 16  2  3
 16 17  1  0
 17 18  2  3
 18 19  1  0
 19 20  2  3
 14 21  2  3
 21 22  1  0
  1 22  2  3
 20  7  1  0
M  END
>  <docking_score>  (3) 
-5.3719999999999999

$$$$
