
     RDKit          3D

 77 79  0  0  0  0  0  0  0  0999 V2000
    3.9247    9.0819   10.9897 C   0  0  0  0  0  0  0  0  0  0  0  0
    4.6603   10.0393   10.5212 C   0  0  0  0  0  0  0  0  0  0  0  0
    5.8997   10.3925   11.2622 C   0  0  0  0  0  0  0  0  0  0  0  0
    4.2309   10.7251    9.2825 C   0  0  0  0  0  0  0  0  0  0  0  0
    5.3870   11.4845    8.6325 C   0  0  0  0  0  3  0  0  0  0  0  0
    5.0783   12.9453    8.7424 C   0  0  1  0  0  0  0  0  0  0  0  0
    5.8860   13.6455    9.8053 C   0  0  1  0  0  0  0  0  0  0  0  0
    6.8584   14.5736    9.1069 C   0  0  0  0  0  0  0  0  0  0  0  0
    4.9290   14.4784   10.6349 C   0  0  0  0  0  0  0  0  0  0  0  0
    3.5581   13.8543   10.7086 C   0  0  0  0  0  0  0  0  0  0  0  0
    2.5163   14.9334   10.9812 C   0  0  0  0  0  0  0  0  0  0  0  0
    2.3959   15.7499    9.7020 C   0  0  0  0  0  3  0  0  0  0  0  0
    3.8031   16.0637    9.2508 C   0  0  0  0  0  3  0  0  0  0  0  0
    3.9889   15.9023    7.7686 C   0  0  0  0  0  0  0  0  0  0  0  0
    3.8094   14.4660    7.3117 C   0  0  0  0  0  3  0  0  0  0  0  0
    5.0852   13.6670    7.4338 C   0  0  2  0  0  0  0  0  0  0  0  0
    5.3475   12.7847    6.2575 C   0  0  0  0  0  0  0  0  0  0  0  0
    5.6746   13.6126    5.0457 C   0  0  0  0  0  3  0  0  0  0  0  0
    6.6018   14.7521    5.3249 C   0  0  0  0  0  3  0  0  0  0  0  0
    7.8102   14.6708    4.3904 C   0  0  1  0  0  0  0  0  0  0  0  0
    8.7391   15.8309    4.5905 C   0  0  0  0  0  0  0  0  0  0  0  0
    8.5151   13.3694    4.7302 C   0  0  0  0  0  0  0  0  0  0  0  0
    8.8222   12.5724    3.4816 C   0  0  0  0  0  0  0  0  0  0  0  0
    9.9737   13.2488    2.7756 C   0  0  0  0  0  0  0  0  0  0  0  0
    9.7555   13.1392    1.2784 C   0  0  0  0  0  3  0  0  0  0  0  0
   10.1762   14.4550    0.6558 C   0  0  2  0  0  0  0  0  0  0  0  0
    9.1607   15.5411    0.8804 C   0  0  0  0  0  2  0  0  0  0  0  0
   10.5605   14.3053   -0.7870 C   0  0  0  0  0  0  0  0  0  0  0  0
   11.9477   14.8293   -1.0029 C   0  0  0  0  0  3  0  0  0  0  0  0
   12.8147   13.7617   -1.6550 C   0  0  0  0  0  0  0  0  0  0  0  0
   11.9775   13.0004   -2.6460 C   0  0  0  0  0  0  0  0  0  0  0  0
   12.7024   11.6924   -2.9688 C   0  0  0  0  0  0  0  0  0  0  0  0
   12.6936   10.8632   -1.7133 C   0  0  0  0  0  0  0  0  0  0  0  0
   13.2172    9.4923   -2.0190 C   0  0  0  0  0  3  0  0  0  0  0  0
   13.8629    9.4488   -3.4061 C   0  0  0  0  0  0  0  0  0  0  0  0
   14.6163    8.1636   -3.5118 C   0  0  2  0  0  0  0  0  0  0  0  0
   15.4718    8.0470   -4.7298 C   0  0  0  0  0  0  0  0  0  0  0  0
   16.7944    7.4579   -4.3653 C   0  0  2  0  0  0  0  0  0  0  0  0
   17.9175    7.6975   -5.3041 C   0  0  0  0  0  0  0  0  0  0  0  0
   17.3720    6.2850   -5.0213 C   0  0  2  0  0  0  0  0  0  0  0  0
   16.7550    5.6020   -6.1968 C   0  0  0  0  0  3  0  0  0  0  0  0
   16.1653    4.2744   -5.8320 C   0  0  0  0  0  0  0  0  0  0  0  0
   17.0179    3.1050   -6.2885 C   0  0  0  0  0  3  0  0  0  0  0  0
   18.4253    3.1825   -5.7299 C   0  0  0  0  0  0  0  0  0  0  0  0
   13.8145    6.9456   -3.1954 C   0  0  0  0  0  0  0  0  0  0  0  0
   14.3111    5.6992   -3.8739 C   0  0  0  0  0  3  0  0  0  0  0  0
   15.3247    5.0347   -2.9667 C   0  0  0  0  0  3  0  0  0  0  0  0
   14.7130    3.9455   -2.1200 C   0  0  0  0  0  0  0  0  0  0  0  0
   15.5295    2.6884   -2.3549 C   0  0  0  0  0  3  0  0  0  0  0  0
   15.2488    1.6203   -1.3369 C   0  0  0  0  0  3  0  0  0  0  0  0
   15.1022    0.3014   -2.0703 C   0  0  0  0  0  3  0  0  0  0  0  0
   15.7582   -0.8000   -1.2613 C   0  0  0  0  0  3  0  0  0  0  0  0
   14.6957   -1.7802   -0.8129 C   0  0  0  0  0  3  0  0  0  0  0  0
   15.2433   -2.5534    0.3709 C   0  0  0  0  0  0  0  0  0  0  0  0
   14.2243   -2.5005    1.4773 C   0  0  0  0  0  0  0  0  0  0  0  0
   13.9662   -3.8700    2.0720 C   0  0  1  0  0  0  0  0  0  0  0  0
   15.1076   -4.1279    3.0607 C   0  0  0  0  0  2  0  0  0  0  0  0
   12.7085   -3.7276    2.9323 C   0  0  0  0  0  3  0  0  0  0  0  0
   12.9482   -2.4978    3.8080 C   0  0  0  0  0  3  0  0  0  0  0  0
   11.6751   -1.7374    4.0567 C   0  0  0  0  0  3  0  0  0  0  0  0
   11.2363   -2.0586    5.4890 C   0  0  0  0  0  0  0  0  0  0  0  0
    9.9057   -1.3671    5.6858 C   0  0  0  0  0  3  0  0  0  0  0  0
   10.0269   -0.5637    6.9834 C   0  0  0  0  0  3  0  0  0  0  0  0
    9.1166   -1.2505    7.9844 C   0  0  0  0  0  3  0  0  0  0  0  0
    8.0937   -0.2085    8.4205 C   0  0  0  0  0  3  0  0  0  0  0  0
    8.1600   -0.1621    9.9395 C   0  0  0  0  0  0  0  0  0  0  0  0
    7.7166    1.2048   10.4167 C   0  0  0  0  0  3  0  0  0  0  0  0
    7.0667    0.9982   11.7780 C   0  0  0  0  0  0  0  0  0  0  0  0
    6.1326    2.1450   12.0550 C   0  0  0  0  0  0  0  0  0  0  0  0
    5.5956    1.9688   13.4557 C   0  0  0  0  0  0  0  0  0  0  0  0
    4.3696    2.8227   13.6455 C   0  0  0  0  0  3  0  0  0  0  0  0
    4.6224    4.1607   12.9795 C   0  0  0  0  0  3  0  0  0  0  0  0
    3.8032    5.2484   13.6269 C   0  0  2  0  0  0  0  0  0  0  0  0
    2.7745    4.6530   14.5573 C   0  0  0  0  0  2  0  0  0  0  0  0
    3.1611    6.1148   12.5582 C   0  0  0  0  0  0  0  0  0  0  0  0
    3.5055    7.5596   12.8370 C   0  0  0  0  0  3  0  0  0  0  0  0
    4.3515    8.1443   11.7769 C   0  0  0  0  0  0  0  0  0  0  0  0
  1  2  2  0
  2  3  1  0
  2  4  1  0
  4  5  1  0
  6  5  1  6
  6  7  1  0
  7  8  1  6
  7  9  1  0
  9 10  1  0
 10 11  1  0
 11 12  1  0
 12 13  1  0
 13 14  1  0
 14 15  1  0
 16 15  1  6
 16 17  1  0
 17 18  1  0
 18 19  1  0
 19 20  1  0
 20 21  1  1
 20 22  1  0
 22 23  1  0
 23 24  1  0
 24 25  1  0
 25 26  1  0
 26 27  1  6
 26 28  1  0
 28 29  1  0
 29 30  1  0
 30 31  1  0
 31 32  1  0
 32 33  1  0
 33 34  1  0
 34 35  1  0
 35 36  1  0
 36 37  1  6
 38 37  1  6
 38 39  1  0
 38 40  1  0
 40 41  1  6
 41 42  1  0
 42 43  1  0
 43 44  1  0
 36 45  1  0
 45 46  1  0
 46 47  1  0
 47 48  1  0
 48 49  1  0
 49 50  1  0
 50 51  1  0
 51 52  1  0
 52 53  1  0
 53 54  1  0
 54 55  1  0
 55 56  1  0
 56 57  1  1
 56 58  1  0
 58 59  1  0
 59 60  1  0
 60 61  1  0
 61 62  1  0
 62 63  1  0
 63 64  1  0
 64 65  1  0
 65 66  1  0
 66 67  1  0
 67 68  1  0
 68 69  1  0
 69 70  1  0
 70 71  1  0
 71 72  1  0
 72 73  1  0
 73 74  1  6
 73 75  1  0
 75 76  1  0
 76 77  1  0
  1 77  2  0
 16  6  1  0
 40 39  1  0
M  RAD  8   5   2  12   2  13   2  15   2  18   2  19   2  25   2  27   3
M  RAD  8  29   2  34   2  41   2  43   2  46   2  47   2  49   2  50   2
M  RAD  8  51   2  52   2  53   2  57   3  58   2  59   2  60   2  62   2
M  RAD  8  63   2  64   2  65   2  67   2  71   2  72   2  74   3  76   2
M  END
>  <docking_score>  (1) 
320.02499999999998

$$$$
