
     RDKit          3D

 28 28  0  0  0  0  0  0  0  0999 V2000
   14.9588   -2.0526   -6.3680 C   0  0  0  0  0  0  0  0  0  0  0  0
   16.0260   -2.3197   -7.3965 C   0  0  0  0  0  0  0  0  0  0  0  0
   16.2643   -3.8042   -7.5567 C   0  0  0  0  0  0  0  0  0  0  0  0
   17.3478   -1.6677   -7.0094 C   0  0  0  0  0  0  0  0  0  0  0  0
   18.2215   -2.6776   -6.2505 C   0  0  0  0  0  0  0  0  0  0  0  0
   19.4974   -1.9681   -5.9308 C   0  0  0  0  0  0  0  0  0  0  0  0
   19.3992   -0.9097   -4.8886 C   0  0  2  0  0  0  0  0  0  0  0  0
   19.3362    0.4911   -5.3912 C   0  0  0  0  0  0  0  0  0  0  0  0
   20.1374   -1.1351   -3.6368 C   0  0  0  0  0  3  0  0  0  0  0  0
   20.8069   -2.4632   -3.5948 C   0  0  0  0  0  0  0  0  0  0  0  0
   19.9543   -3.5744   -3.1547 C   0  0  0  0  0  0  0  0  0  0  0  0
   19.3402   -3.5020   -1.8014 C   0  0  1  0  0  0  0  0  0  0  0  0
   20.3035   -3.0946   -0.7100 C   0  0  0  0  0  0  0  0  0  0  0  0
   18.1892   -2.5216   -1.7429 C   0  0  0  0  0  0  0  0  0  0  0  0
   17.0509   -3.0235   -2.6674 C   0  0  2  0  0  0  0  0  0  0  0  0
   16.1033   -1.8434   -2.8871 C   0  0  0  0  0  0  0  0  0  0  0  0
   16.4042   -4.2120   -2.0932 C   0  0  0  0  0  0  0  0  0  0  0  0
   16.6327   -5.4808   -2.7234 C   0  0  0  0  0  0  0  0  0  0  0  0
   16.1526   -5.8466   -4.0229 C   0  0  1  0  0  0  0  0  0  0  0  0
   15.0976   -5.1635   -4.5517 O   0  0  0  0  0  0  0  0  0  0  0  0
   17.2451   -6.0656   -5.0159 C   0  0  0  0  0  0  0  0  0  0  0  0
   17.2003   -7.4771   -5.5237 C   0  0  0  0  0  0  0  0  0  0  0  0
   18.5292   -8.1625   -5.4618 C   0  0  1  0  0  0  0  0  0  0  0  0
   19.2708   -7.7887   -6.5926 O   0  0  0  0  0  0  0  0  0  0  0  0
   19.3081   -7.8007   -4.3123 N   0  0  0  0  0  0  0  0  0  0  0  0
   20.2793   -6.7329   -4.3827 C   0  0  0  0  0  0  0  0  0  0  0  0
   20.7718   -8.0549   -4.5316 C   0  0  1  0  0  0  0  0  0  0  0  0
   21.3643   -8.9007   -3.4253 C   0  0  0  0  0  2  0  0  0  0  0  0
  1  2  1  0
  2  3  1  0
  2  4  1  0
  4  5  1  0
  5  6  1  0
  6  7  1  0
  7  8  1  6
  7  9  1  0
  9 10  1  0
 10 11  1  0
 11 12  1  0
 12 13  1  1
 12 14  1  0
 14 15  1  0
 15 16  1  1
 15 17  1  0
 17 18  1  0
 18 19  1  0
 19 20  1  6
 19 21  1  0
 21 22  1  0
 22 23  1  0
 23 24  1  6
 23 25  1  0
 25 26  1  0
 26 27  1  0
 27 28  1  1
 27 25  1  0
M  RAD  2   9   2  28   3
M  END
>  <docking_score>  (1) 
-3.6970000000000001

$$$$

     RDKit          3D

 28 28  0  0  0  0  0  0  0  0999 V2000
   19.5407    0.2889   -5.2091 C   0  0  0  0  0  0  0  0  0  0  0  0
   19.8945   -0.3862   -3.9102 C   0  0  0  0  0  0  0  0  0  0  0  0
   21.3732   -0.6955   -3.8459 C   0  0  0  0  0  0  0  0  0  0  0  0
   19.1301   -1.6928   -3.7355 C   0  0  0  0  0  0  0  0  0  0  0  0
   18.8158   -1.9149   -2.2486 C   0  0  0  0  0  0  0  0  0  0  0  0
   17.3297   -1.8255   -2.1184 C   0  0  0  0  0  0  0  0  0  0  0  0
   16.5629   -2.9381   -2.7432 C   0  0  2  0  0  0  0  0  0  0  0  0
   17.3179   -4.2037   -2.9605 C   0  0  0  0  0  0  0  0  0  0  0  0
   15.5681   -2.5731   -3.7629 C   0  0  0  0  0  3  0  0  0  0  0  0
   15.4610   -3.5836   -4.8498 C   0  0  0  0  0  0  0  0  0  0  0  0
   14.1187   -3.7376   -5.4241 C   0  0  0  0  0  0  0  0  0  0  0  0
   13.6854   -5.0940   -5.8559 C   0  0  1  0  0  0  0  0  0  0  0  0
   13.5301   -5.2427   -7.3522 C   0  0  0  0  0  0  0  0  0  0  0  0
   14.6503   -6.1738   -5.4173 C   0  0  0  0  0  0  0  0  0  0  0  0
   15.9239   -6.1009   -6.2976 C   0  0  2  0  0  0  0  0  0  0  0  0
   15.4671   -5.7410   -7.7121 C   0  0  0  0  0  0  0  0  0  0  0  0
   16.6825   -7.3571   -6.2148 C   0  0  0  0  0  0  0  0  0  0  0  0
   17.6092   -7.6616   -7.2674 C   0  0  0  0  0  0  0  0  0  0  0  0
   18.6421   -8.6514   -7.1865 C   0  0  1  0  0  0  0  0  0  0  0  0
   18.6715   -9.6501   -8.1143 O   0  0  0  0  0  0  0  0  0  0  0  0
   19.9939   -8.0743   -6.9272 C   0  0  0  0  0  0  0  0  0  0  0  0
   19.9574   -6.5846   -7.1045 C   0  0  0  0  0  0  0  0  0  0  0  0
   20.0118   -5.8405   -5.8071 C   0  0  1  0  0  0  0  0  0  0  0  0
   21.3158   -5.9369   -5.2984 O   0  0  0  0  0  0  0  0  0  0  0  0
   19.7147   -4.4426   -5.9349 N   0  0  0  0  0  0  0  0  0  0  0  0
   18.8909   -3.9571   -7.0184 C   0  0  0  0  0  0  0  0  0  0  0  0
   20.2956   -3.8648   -7.1934 C   0  0  1  0  0  0  0  0  0  0  0  0
   21.1368   -2.6392   -6.9095 C   0  0  0  0  0  2  0  0  0  0  0  0
  1  2  1  0
  2  3  1  0
  2  4  1  0
  4  5  1  0
  5  6  1  0
  6  7  1  0
  7  8  1  6
  7  9  1  0
  9 10  1  0
 10 11  1  0
 11 12  1  0
 12 13  1  6
 12 14  1  0
 14 15  1  0
 15 16  1  6
 15 17  1  0
 17 18  1  0
 18 19  1  0
 19 20  1  6
 19 21  1  0
 21 22  1  0
 22 23  1  0
 23 24  1  6
 23 25  1  0
 25 26  1  0
 26 27  1  0
 27 28  1  1
 27 25  1  0
M  RAD  2   9   2  28   3
M  END
>  <docking_score>  (2) 
-1.6359999999999999

$$$$
