
     RDKit          3D

 69 73  0  0  0  0  0  0  0  0999 V2000
   21.3392    6.8194   -3.5762 C   0  0  0  0  0  0  0  0  0  0  0  0
   20.3440    6.2504   -2.6098 C   0  0  1  0  0  0  0  0  0  0  0  0
   20.8142    6.4863   -1.1917 C   0  0  0  0  0  0  0  0  0  0  0  0
   20.4363    7.8690   -0.7086 C   0  0  2  0  0  0  0  0  0  0  0  0
   19.2984    7.8636    0.0885 O   0  0  0  0  0  0  0  0  0  0  0  0
   20.1705    8.8127   -1.8700 C   0  0  2  0  0  0  0  0  0  0  0  0
   19.8960   10.0651   -1.3356 O   0  0  0  0  0  0  0  0  0  0  0  0
   18.9126    8.3064   -2.5664 C   0  0  1  0  0  0  0  0  0  0  0  0
   18.6595    9.0130   -3.7317 O   0  0  0  0  0  0  0  0  0  0  0  0
   18.9592    6.8230   -2.7712 C   0  0  1  0  0  0  0  0  0  0  0  0
   18.2589    6.3562   -3.9139 N   0  0  0  0  0  0  0  0  0  0  0  0
   18.2435    4.9472   -4.1116 C   0  0  0  0  0  3  0  0  0  0  0  0
   18.8110    4.5086   -5.4366 C   0  0  0  0  0  0  0  0  0  0  0  0
   17.9340    4.8924   -6.6010 C   0  0  1  0  0  0  0  0  0  0  0  0
   18.5477    4.4163   -7.7571 O   0  0  0  0  0  0  0  0  0  0  0  0
   16.5127    4.4338   -6.4528 C   0  0  0  0  0  3  0  0  0  0  0  0
   16.3524    3.0774   -6.5781 O   0  0  0  0  0  0  0  0  0  0  0  0
   15.6074    2.6166   -5.4949 C   0  0  0  0  0  0  0  0  0  0  0  0
   14.4982    1.6877   -5.9291 C   0  0  1  0  0  0  0  0  0  0  0  0
   14.8686    1.1106   -7.1390 O   0  0  0  0  0  0  0  0  0  0  0  0
   14.2363    0.5813   -4.9309 C   0  0  2  0  0  0  0  0  0  0  0  0
   15.1949    0.8373   -3.7624 C   0  0  0  0  0  0  0  0  0  0  0  0
   14.5216   -0.7669   -5.5484 C   0  0  1  0  0  0  0  0  0  0  0  0
   15.6510   -0.7596   -6.5202 C   0  0  0  0  0  0  0  0  0  0  0  0
   15.0563   -1.0892   -7.8953 C   0  0  0  0  0  3  0  0  0  0  0  0
   14.2892   -2.2530   -7.8461 O   0  0  0  0  0  0  0  0  0  0  0  0
   13.4351   -2.2732   -6.8610 O   0  0  0  0  0  0  0  0  0  0  0  0
   13.5967   -3.2773   -5.9998 N   0  0  0  0  0  3  0  0  0  0  0  0
   12.6647   -4.2386   -6.1124 O   0  0  0  0  0  0  0  0  0  0  0  0
   13.5645   -2.8157   -4.7244 O   0  0  0  0  0  0  0  0  0  0  0  0
   14.5494   -1.8765   -4.5606 C   0  0  1  0  0  0  0  0  0  0  0  0
   15.8596   -2.5353   -4.3487 C   0  0  2  0  0  0  0  0  0  0  0  0
   16.0217   -3.2073   -3.1653 O   0  0  0  0  0  0  0  0  0  0  0  0
   17.0626   -1.7529   -4.7477 C   0  0  1  0  0  0  0  0  0  0  0  0
   18.0797   -1.4756   -3.6550 C   0  0  2  0  0  0  0  0  0  0  0  0
   18.3765    0.0039   -3.4413 C   0  0  0  0  0  2  0  0  0  0  0  0
   19.1887   -2.0431   -4.5523 C   0  0  0  0  0  3  0  0  0  0  0  0
   18.0843   -2.7554   -5.3038 C   0  0  2  0  0  0  0  0  0  0  0  0
   18.1849   -2.7017   -6.7926 C   0  0  0  0  0  0  0  0  0  0  0  0
   19.4881   -3.4145   -7.1747 C   0  0  0  0  0  3  0  0  0  0  0  0
   19.3475   -4.8994   -7.1016 C   0  0  0  0  0  0  0  0  0  0  0  0
   19.0126   -5.3965   -5.7219 C   0  0  0  0  0  0  0  0  0  0  0  0
   19.1765   -6.8711   -5.5693 C   0  0  2  0  0  0  0  0  0  0  0  0
   18.4237   -7.4504   -4.4157 C   0  0  0  0  0  3  0  0  0  0  0  0
   18.3294   -8.9485   -4.6018 C   0  0  1  0  0  0  0  0  0  0  0  0
   17.1041   -9.5193   -3.9168 C   0  0  0  0  0  0  0  0  0  0  0  0
   18.3602   -9.2966   -5.9528 O   0  0  0  0  0  0  0  0  0  0  0  0
   19.2997  -10.2789   -6.2134 C   0  0  0  0  0  2  0  0  0  0  0  0
   20.6327   -7.2106   -5.4009 C   0  0  1  0  0  0  0  0  0  0  0  0
   21.2847   -7.3728   -6.7540 C   0  0  0  0  0  3  0  0  0  0  0  0
   20.3445   -7.3816   -7.7834 O   0  0  0  0  0  0  0  0  0  0  0  0
   20.2162   -8.5981   -8.4064 C   0  0  0  0  0  3  0  0  0  0  0  0
   18.7556   -8.8289   -8.7292 C   0  0  0  0  0  3  0  0  0  0  0  0
   17.9466   -7.5508   -8.6995 C   0  0  0  0  0  3  0  0  0  0  0  0
   16.8749   -7.6511   -7.8028 O   0  0  0  0  0  0  0  0  0  0  0  0
   16.3299   -6.3924   -7.5617 C   0  0  0  0  0  3  0  0  0  0  0  0
   15.5786   -6.3664   -6.2717 C   0  0  0  0  0  3  0  0  0  0  0  0
   15.7570   -5.1838   -5.5469 O   0  0  0  0  0  0  0  0  0  0  0  0
   15.7437   -5.3758   -4.1846 C   0  0  2  0  0  0  0  0  0  0  0  0
   14.3856   -5.5220   -3.5804 C   0  0  0  0  0  3  0  0  0  0  0  0
   13.6942   -6.6779   -4.3136 C   0  0  0  0  0  3  0  0  0  0  0  0
   13.0065   -7.4355   -3.3410 O   0  0  0  0  0  0  0  0  0  0  0  0
   21.3622   -6.2937   -4.4797 C   0  0  0  0  0  3  0  0  0  0  0  0
   20.5401   -5.1864   -3.9113 C   0  0  0  0  0  3  0  0  0  0  0  0
   19.7749   -5.5854   -2.6760 C   0  0  0  0  0  3  0  0  0  0  0  0
   18.7802   -4.5415   -2.2880 C   0  0  2  0  0  0  0  0  0  0  0  0
   19.0482   -4.1237   -0.9712 O   0  0  0  0  0  0  0  0  0  0  0  0
   17.3472   -5.0291   -2.2907 C   0  0  0  0  0  3  0  0  0  0  0  0
   16.6529   -4.4324   -3.4738 C   0  0  2  0  0  0  0  0  0  0  0  0
  2  1  1  6
  2  3  1  0
  3  4  1  0
  4  5  1  1
  4  6  1  0
  6  7  1  1
  6  8  1  0
  8  9  1  6
  8 10  1  0
 10 11  1  6
 11 12  1  0
 12 13  1  0
 13 14  1  0
 14 15  1  6
 14 16  1  0
 16 17  1  0
 17 18  1  0
 18 19  1  0
 19 20  1  6
 19 21  1  0
 21 22  1  1
 21 23  1  0
 23 24  1  1
 24 25  1  0
 25 26  1  0
 26 27  1  0
 27 28  1  0
 28 29  1  0
 28 30  1  0
 31 30  1  6
 31 32  1  0
 32 33  1  1
 32 34  1  0
 34 35  1  1
 35 36  1  6
 35 37  1  0
 38 37  1  1
 38 39  1  0
 39 40  1  0
 40 41  1  0
 41 42  1  0
 42 43  1  0
 43 44  1  1
 44 45  1  0
 45 46  1  6
 45 47  1  0
 47 48  1  0
 43 49  1  0
 49 50  1  6
 50 51  1  0
 51 52  1  0
 52 53  1  0
 53 54  1  0
 54 55  1  0
 55 56  1  0
 56 57  1  0
 57 58  1  0
 58 59  1  0
 59 60  1  1
 60 61  1  0
 61 62  1  0
 49 63  1  0
 63 64  1  0
 64 65  1  0
 65 66  1  0
 66 67  1  1
 66 68  1  0
 68 69  1  0
 10  2  1  0
 31 23  1  0
 69 33  1  1
 38 34  1  0
 69 59  1  0
M  RAD  8  12   2  16   2  25   2  28   2  36   3  37   2  40   2  44   2
M  RAD  8  48   3  50   2  52   2  53   2  54   2  56   2  57   2  60   2
M  CHG  1  28   1
M  RAD  5  61   2  63   2  64   2  65   2  68   2
M  END
>  <docking_score>  (1) 
23.498000000000001

$$$$
