
     RDKit          3D

 23 27  0  0  0  0  0  0  0  0999 V2000
   17.9338   -3.5655   -3.4452 C   0  0  2  0  0  0  0  0  0  0  0  0
   16.7235   -4.3312   -3.7371 C   0  0  0  0  0  3  0  0  0  0  0  0
   16.7326   -5.7757   -3.6551 C   0  0  0  0  0  0  0  0  0  0  0  0
   16.0281   -6.3931   -4.8282 C   0  0  0  0  0  0  0  0  0  0  0  0
   14.9340   -5.5722   -5.3693 C   0  0  0  0  0  0  0  0  0  0  0  0
   13.8890   -6.0526   -5.8117 O   0  0  0  0  0  0  0  0  0  0  0  0
   14.9972   -4.0623   -5.4296 C   0  0  1  0  0  0  0  0  0  0  0  0
   15.5046   -3.6229   -4.0954 C   0  0  2  0  0  0  0  0  0  0  0  0
   15.6330   -2.1677   -3.9037 C   0  0  1  0  0  0  0  0  0  0  0  0
   16.3054   -1.8249   -2.6447 C   0  0  0  0  0  0  0  0  0  0  0  0
   17.5982   -2.5262   -2.3765 C   0  0  2  0  0  0  0  0  0  0  0  0
   18.6654   -1.5114   -2.1857 C   0  0  0  0  0  0  0  0  0  0  0  0
   20.0549   -2.0426   -2.1398 C   0  0  0  0  0  0  0  0  0  0  0  0
   20.6133   -1.9453   -3.5663 C   0  0  0  0  0  0  0  0  0  0  0  0
   20.0325   -3.0788   -4.3378 C   0  0  0  0  0  0  0  0  0  0  0  0
   18.5831   -2.9402   -4.5482 N   0  0  2  0  0  4  0  0  0  0  0  0
   18.1986   -1.5212   -4.5193 C   0  0  0  0  0  0  0  0  0  0  0  0
   17.0840   -1.2235   -5.4503 C   0  0  0  0  0  0  0  0  0  0  0  0
   15.8254   -1.3892   -4.9736 O   0  0  0  0  0  0  0  0  0  0  0  0
   18.3028   -3.4626   -5.8310 C   0  0  0  0  0  2  0  0  0  0  0  0
   17.2590   -4.3238   -5.9452 O   0  0  0  0  0  0  0  0  0  0  0  0
   16.0927   -3.7600   -6.4511 C   0  0  1  0  0  0  0  0  0  0  0  0
   15.7705   -4.1768   -7.7140 O   0  0  0  0  0  0  0  0  0  0  0  0
  1  2  1  6
  2  3  1  0
  3  4  1  0
  4  5  1  0
  5  6  2  0
  7  5  1  1
  8  7  1  0
  8  9  1  0
  9 10  1  1
 10 11  1  0
 11 12  1  6
 12 13  1  0
 13 14  1  0
 14 15  1  0
 16 15  1  1
 16 17  1  0
 17 18  1  0
 18 19  1  0
 16 20  1  0
 20 21  1  0
 21 22  1  0
 22 23  1  6
 11  1  1  0
 16  1  1  0
  8  2  1  6
 22  7  1  0
 19  9  1  0
M  CHG  1  16   1
M  RAD  2   2   2  20   3
M  END
>  <docking_score>  (1) 
-6.351

$$$$

     RDKit          3D

 23 27  0  0  0  0  0  0  0  0999 V2000
   17.6208   -3.9985   -4.6772 C   0  0  2  0  0  0  0  0  0  0  0  0
   18.4003   -2.8282   -4.2787 C   0  0  0  0  0  3  0  0  0  0  0  0
   19.6431   -2.5126   -4.9488 C   0  0  0  0  0  0  0  0  0  0  0  0
   20.7125   -2.1347   -3.9654 C   0  0  0  0  0  0  0  0  0  0  0  0
   20.2041   -1.4804   -2.7500 C   0  0  0  0  0  0  0  0  0  0  0  0
   20.8049   -0.5712   -2.1749 O   0  0  0  0  0  0  0  0  0  0  0  0
   18.8952   -1.8685   -2.0990 C   0  0  1  0  0  0  0  0  0  0  0  0
   17.9036   -1.9744   -3.2109 C   0  0  2  0  0  0  0  0  0  0  0  0
   16.5287   -2.3260   -2.8149 C   0  0  1  0  0  0  0  0  0  0  0  0
   15.6621   -2.5892   -3.9702 C   0  0  0  0  0  0  0  0  0  0  0  0
   16.1963   -3.5426   -4.9903 C   0  0  2  0  0  0  0  0  0  0  0  0
   15.2386   -4.6667   -5.1462 C   0  0  0  0  0  0  0  0  0  0  0  0
   15.7274   -5.8189   -5.9514 C   0  0  0  0  0  0  0  0  0  0  0  0
   16.3158   -6.8333   -4.9610 C   0  0  0  0  0  0  0  0  0  0  0  0
   17.6607   -6.3277   -4.5698 C   0  0  0  0  0  0  0  0  0  0  0  0
   17.5942   -5.0955   -3.7689 N   0  0  2  0  0  4  0  0  0  0  0  0
   16.3122   -5.0235   -3.0523 C   0  0  0  0  0  0  0  0  0  0  0  0
   16.4470   -4.3747   -1.7262 C   0  0  0  0  0  0  0  0  0  0  0  0
   16.3382   -3.0235   -1.6901 O   0  0  0  0  0  0  0  0  0  0  0  0
   18.6420   -5.1638   -2.8230 C   0  0  0  0  0  2  0  0  0  0  0  0
   19.4288   -4.0668   -2.6755 O   0  0  0  0  0  0  0  0  0  0  0  0
   19.1299   -3.2817   -1.5673 C   0  0  1  0  0  0  0  0  0  0  0  0
   20.0737   -3.3264   -0.5775 O   0  0  0  0  0  0  0  0  0  0  0  0
  1  2  1  1
  2  3  1  0
  3  4  1  0
  4  5  1  0
  5  6  2  0
  7  5  1  6
  8  7  1  0
  8  9  1  0
  9 10  1  6
 10 11  1  0
 11 12  1  1
 12 13  1  0
 13 14  1  0
 14 15  1  0
 16 15  1  6
 16 17  1  0
 17 18  1  0
 18 19  1  0
 16 20  1  0
 20 21  1  0
 21 22  1  0
 22 23  1  1
 11  1  1  0
 16  1  1  0
  8  2  1  6
 22  7  1  0
 19  9  1  0
M  CHG  1  16   1
M  RAD  2   2   2  20   3
M  END
>  <docking_score>  (2) 
-6.343

$$$$

     RDKit          3D

 23 27  0  0  0  0  0  0  0  0999 V2000
   17.8049   -4.9028   -3.7215 C   0  0  2  0  0  0  0  0  0  0  0  0
   16.3817   -5.0650   -4.0121 C   0  0  0  0  0  3  0  0  0  0  0  0
   15.8630   -6.3451   -4.4430 C   0  0  0  0  0  0  0  0  0  0  0  0
   14.9075   -6.1883   -5.5902 C   0  0  0  0  0  0  0  0  0  0  0  0
   14.1608   -4.9210   -5.5786 C   0  0  0  0  0  0  0  0  0  0  0  0
   12.9865   -4.8297   -5.9406 O   0  0  0  0  0  0  0  0  0  0  0  0
   14.7721   -3.6160   -5.1195 C   0  0  1  0  0  0  0  0  0  0  0  0
   15.4894   -3.9281   -3.8472 C   0  0  2  0  0  0  0  0  0  0  0  0
   16.1570   -2.7910   -3.1898 C   0  0  1  0  0  0  0  0  0  0  0  0
   16.9870   -3.2084   -2.0533 C   0  0  0  0  0  0  0  0  0  0  0  0
   17.9446   -4.3268   -2.3130 C   0  0  2  0  0  0  0  0  0  0  0  0
   19.3205   -3.8646   -1.9992 C   0  0  0  0  0  0  0  0  0  0  0  0
   20.4163   -4.7783   -2.4225 C   0  0  0  0  0  0  0  0  0  0  0  0
   20.8793   -4.3028   -3.8066 C   0  0  0  0  0  0  0  0  0  0  0  0
   19.8739   -4.7895   -4.7912 C   0  0  0  0  0  0  0  0  0  0  0  0
   18.5674   -4.1297   -4.6435 N   0  0  2  0  0  4  0  0  0  0  0  0
   18.7355   -2.7973   -4.0444 C   0  0  0  0  0  0  0  0  0  0  0  0
   17.7523   -1.8193   -4.5681 C   0  0  0  0  0  0  0  0  0  0  0  0
   16.5543   -1.7551   -3.9361 O   0  0  0  0  0  0  0  0  0  0  0  0
   18.0333   -3.9810   -5.9434 C   0  0  0  0  0  2  0  0  0  0  0  0
   16.7407   -4.3487   -6.1382 O   0  0  0  0  0  0  0  0  0  0  0  0
   15.8346   -3.2942   -6.1696 C   0  0  1  0  0  0  0  0  0  0  0  0
   15.3018   -3.0493   -7.4059 O   0  0  0  0  0  0  0  0  0  0  0  0
  1  2  1  6
  2  3  1  0
  3  4  1  0
  4  5  1  0
  5  6  2  0
  7  5  1  6
  8  7  1  0
  8  9  1  0
  9 10  1  6
 10 11  1  0
 11 12  1  6
 12 13  1  0
 13 14  1  0
 14 15  1  0
 16 15  1  6
 16 17  1  0
 17 18  1  0
 18 19  1  0
 16 20  1  0
 20 21  1  0
 21 22  1  0
 22 23  1  6
 11  1  1  0
 16  1  1  0
  8  2  1  6
 22  7  1  0
 19  9  1  0
M  CHG  1  16   1
M  RAD  2   2   2  20   3
M  END
>  <docking_score>  (3) 
-6.25

$$$$
