
     RDKit          3D

  9  9  0  0  0  0  0  0  0  0999 V2000
    6.3878    1.1311   -5.7491 O   0  0  0  0  0  0  0  0  0  0  0  0
    6.1801    1.3481   -7.0199 O   0  0  0  0  0  0  0  0  0  0  0  0
    5.6915    0.1746   -7.5778 C   0  0  0  0  0  3  0  0  0  0  0  0
    6.5936   -0.8678   -7.5260 O   0  0  0  0  0  0  0  0  0  0  0  0
    6.5163   -1.6135   -6.3661 C   0  0  2  0  0  0  0  0  0  0  0  0
    5.1484   -2.1758   -6.1026 C   0  0  0  0  0  0  0  0  0  0  0  0
    5.0695   -3.5448   -6.2724 O   0  0  0  0  0  0  0  0  0  0  0  0
    7.0397   -0.8644   -5.1612 C   0  0  0  0  0  3  0  0  0  0  0  0
    7.4576    0.4046   -5.5187 O   0  0  0  0  0  0  0  0  0  0  0  0
  1  2  1  0
  2  3  1  0
  3  4  1  0
  4  5  1  0
  5  6  1  1
  6  7  1  0
  5  8  1  0
  8  9  1  0
  9  1  1  0
M  RAD  2   3   2   8   2
M  END
>  <docking_score>  (1) 
-3.9780000000000002

$$$$

     RDKit          3D

  9  9  0  0  0  0  0  0  0  0999 V2000
    5.2216   -1.7407   -6.3190 O   0  0  0  0  0  0  0  0  0  0  0  0
    5.9896   -2.3171   -5.4341 O   0  0  0  0  0  0  0  0  0  0  0  0
    6.7313   -1.3267   -4.8047 C   0  0  0  0  0  3  0  0  0  0  0  0
    7.5884   -0.6646   -5.6591 O   0  0  0  0  0  0  0  0  0  0  0  0
    7.0182    0.4275   -6.2833 C   0  0  2  0  0  0  0  0  0  0  0  0
    6.4504    1.4379   -5.3275 C   0  0  0  0  0  0  0  0  0  0  0  0
    5.6063    2.3539   -5.9258 O   0  0  0  0  0  0  0  0  0  0  0  0
    5.9981    0.0298   -7.3264 C   0  0  0  0  0  3  0  0  0  0  0  0
    5.8740   -1.3463   -7.3886 O   0  0  0  0  0  0  0  0  0  0  0  0
  1  2  1  0
  2  3  1  0
  3  4  1  0
  4  5  1  0
  5  6  1  1
  6  7  1  0
  5  8  1  0
  8  9  1  0
  9  1  1  0
M  RAD  2   3   2   8   2
M  END
>  <docking_score>  (2) 
-3.6749999999999998

$$$$

     RDKit          3D

  9  9  0  0  0  0  0  0  0  0999 V2000
   15.9087   -1.6568   -3.1740 O   0  0  0  0  0  0  0  0  0  0  0  0
   15.8865   -2.9614   -3.1238 O   0  0  0  0  0  0  0  0  0  0  0  0
   15.7193   -3.4344   -4.4183 C   0  0  0  0  0  3  0  0  0  0  0  0
   14.5131   -3.0679   -4.9786 O   0  0  0  0  0  0  0  0  0  0  0  0
   14.5500   -1.8521   -5.6329 C   0  0  2  0  0  0  0  0  0  0  0  0
   15.5973   -1.7790   -6.7073 C   0  0  0  0  0  0  0  0  0  0  0  0
   15.1723   -2.2630   -7.9298 O   0  0  0  0  0  0  0  0  0  0  0  0
   14.6654   -0.6851   -4.6781 C   0  0  0  0  0  3  0  0  0  0  0  0
   14.7221   -1.1284   -3.3693 O   0  0  0  0  0  0  0  0  0  0  0  0
  1  2  1  0
  2  3  1  0
  3  4  1  0
  4  5  1  0
  5  6  1  6
  6  7  1  0
  5  8  1  0
  8  9  1  0
  9  1  1  0
M  RAD  2   3   2   8   2
M  END
>  <docking_score>  (3) 
-3.0209999999999999

$$$$
