
     RDKit          3D

 29 30  0  0  0  0  0  0  0  0999 V2000
   16.6827   -2.8285   -7.9173 C   0  0  0  0  0  0  0  0  0  0  0  0
   16.2590   -2.2464   -6.6041 C   0  0  1  0  0  0  0  0  0  0  0  0
   15.0336   -1.4069   -6.7922 C   0  0  0  0  0  0  0  0  0  0  0  0
   14.4756   -0.8305   -5.5301 C   0  0  2  0  0  0  0  0  0  0  0  0
   14.6120    0.5403   -5.4211 O   0  0  0  0  0  0  0  0  0  0  0  0
   14.9553   -1.5335   -4.2806 C   0  0  2  0  0  0  0  0  0  0  0  0
   16.2896   -1.1341   -4.0982 O   0  0  0  0  0  0  0  0  0  0  0  0
   14.9560   -3.0217   -4.6184 C   0  0  1  0  0  0  0  0  0  0  0  0
   13.8473   -3.2892   -5.4379 O   0  0  0  0  0  0  0  0  0  0  0  0
   16.1788   -3.2244   -5.4849 C   0  0  1  0  0  0  0  0  0  0  0  0
   16.3922   -4.5944   -5.8567 N   0  0  0  0  0  0  0  0  0  0  0  0
   16.6072   -5.3407   -4.6367 C   0  0  1  0  0  0  0  0  0  0  0  0
   15.9432   -6.6826   -4.6251 C   0  0  1  0  0  0  0  0  0  0  0  0
   14.4976   -6.4953   -5.0216 C   0  0  0  0  0  0  0  0  0  0  0  0
   16.5606   -7.6254   -5.4253 O   0  0  0  0  0  0  0  0  0  0  0  0
   17.9071   -7.7050   -5.1081 C   0  0  1  0  0  0  0  0  0  0  0  0
   18.3984   -8.9961   -5.1046 O   0  0  0  0  0  0  0  0  0  0  0  0
   18.6789   -6.8060   -6.0666 C   0  0  1  0  0  0  0  0  0  0  0  0
   17.8972   -6.6367   -7.2131 O   0  0  0  0  0  0  0  0  0  0  0  0
   18.8997   -5.4298   -5.4506 C   0  0  2  0  0  0  0  0  0  0  0  0
   20.2457   -5.3005   -5.0773 O   0  0  0  0  0  0  0  0  0  0  0  0
   18.0391   -5.3604   -4.1945 C   0  0  1  0  0  0  0  0  0  0  0  0
   18.3141   -4.1297   -3.5827 O   0  0  0  0  0  0  0  0  0  0  0  0
   18.6000   -4.3445   -2.3107 O   0  0  0  0  0  0  0  0  0  0  0  0
   19.5129   -3.4159   -1.8212 C   0  0  0  0  0  3  0  0  0  0  0  0
   19.2389   -2.0173   -2.3321 C   0  0  0  0  0  3  0  0  0  0  0  0
   19.3616   -1.0954   -1.3055 O   0  0  0  0  0  0  0  0  0  0  0  0
   20.5870   -0.4141   -1.3456 C   0  0  0  0  0  3  0  0  0  0  0  0
   20.7926    0.1520   -2.7241 C   0  0  0  0  0  2  0  0  0  0  0  0
  2  1  1  6
  2  3  1  0
  3  4  1  0
  4  5  1  1
  4  6  1  0
  6  7  1  6
  6  8  1  0
  8  9  1  6
  8 10  1  0
 10 11  1  6
 12 11  1  6
 12 13  1  0
 13 14  1  6
 13 15  1  0
 15 16  1  0
 16 17  1  6
 16 18  1  0
 18 19  1  6
 18 20  1  0
 20 21  1  1
 20 22  1  0
 22 23  1  6
 23 24  1  0
 24 25  1  0
 25 26  1  0
 26 27  1  0
 27 28  1  0
 28 29  1  0
 10  2  1  0
 22 12  1  0
M  RAD  4  25   2  26   2  28   2  29   3
M  END
>  <docking_score>  (1) 
-5.1159999999999997

$$$$

     RDKit          3D

 29 30  0  0  0  0  0  0  0  0999 V2000
   21.2351   -5.8582   -3.2214 C   0  0  0  0  0  0  0  0  0  0  0  0
   20.6946   -6.1859   -4.5791 C   0  0  1  0  0  0  0  0  0  0  0  0
   20.8733   -7.6459   -4.8583 C   0  0  0  0  0  0  0  0  0  0  0  0
   20.3023   -8.1036   -6.1625 C   0  0  2  0  0  0  0  0  0  0  0  0
   21.2482   -8.4680   -7.1017 O   0  0  0  0  0  0  0  0  0  0  0  0
   19.2855   -7.1488   -6.7456 C   0  0  2  0  0  0  0  0  0  0  0  0
   20.0166   -6.0525   -7.2324 O   0  0  0  0  0  0  0  0  0  0  0  0
   18.4492   -6.6641   -5.5647 C   0  0  1  0  0  0  0  0  0  0  0  0
   18.2766   -7.7374   -4.6756 O   0  0  0  0  0  0  0  0  0  0  0  0
   19.3278   -5.6622   -4.8496 C   0  0  1  0  0  0  0  0  0  0  0  0
   18.6828   -5.0362   -3.7304 N   0  0  0  0  0  0  0  0  0  0  0  0
   17.6891   -4.1293   -4.2610 C   0  0  1  0  0  0  0  0  0  0  0  0
   16.3976   -4.1389   -3.5036 C   0  0  1  0  0  0  0  0  0  0  0  0
   15.9495   -5.5740   -3.3564 C   0  0  0  0  0  0  0  0  0  0  0  0
   16.4582   -3.5078   -2.2754 O   0  0  0  0  0  0  0  0  0  0  0  0
   16.9667   -2.2277   -2.4269 C   0  0  1  0  0  0  0  0  0  0  0  0
   16.3297   -1.2842   -1.6444 O   0  0  0  0  0  0  0  0  0  0  0  0
   18.4657   -2.2726   -2.1555 C   0  0  1  0  0  0  0  0  0  0  0  0
   18.7212   -3.3977   -1.3661 O   0  0  0  0  0  0  0  0  0  0  0  0
   19.2416   -2.4354   -3.4570 C   0  0  2  0  0  0  0  0  0  0  0  0
   19.8678   -1.2217   -3.7773 O   0  0  0  0  0  0  0  0  0  0  0  0
   18.2242   -2.7584   -4.5450 C   0  0  1  0  0  0  0  0  0  0  0  0
   18.9298   -2.8174   -5.7546 O   0  0  0  0  0  0  0  0  0  0  0  0
   18.0985   -2.5391   -6.7430 O   0  0  0  0  0  0  0  0  0  0  0  0
   17.1449   -1.5980   -6.3681 C   0  0  0  0  0  3  0  0  0  0  0  0
   15.7952   -1.8654   -6.9996 C   0  0  0  0  0  3  0  0  0  0  0  0
   14.8544   -2.1537   -6.0246 O   0  0  0  0  0  0  0  0  0  0  0  0
   14.7836   -1.1557   -5.0417 C   0  0  0  0  0  3  0  0  0  0  0  0
   13.8203   -0.0899   -5.4882 C   0  0  0  0  0  2  0  0  0  0  0  0
  2  1  1  1
  2  3  1  0
  3  4  1  0
  4  5  1  6
  4  6  1  0
  6  7  1  1
  6  8  1  0
  8  9  1  1
  8 10  1  0
 10 11  1  1
 12 11  1  1
 12 13  1  0
 13 14  1  1
 13 15  1  0
 15 16  1  0
 16 17  1  1
 16 18  1  0
 18 19  1  1
 18 20  1  0
 20 21  1  6
 20 22  1  0
 22 23  1  6
 23 24  1  0
 24 25  1  0
 25 26  1  0
 26 27  1  0
 27 28  1  0
 28 29  1  0
 10  2  1  0
 22 12  1  0
M  RAD  4  25   2  26   2  28   2  29   3
M  END
>  <docking_score>  (2) 
-4.3019999999999996

$$$$

     RDKit          3D

 29 30  0  0  0  0  0  0  0  0999 V2000
   16.1667   -6.8634   -5.5738 C   0  0  0  0  0  0  0  0  0  0  0  0
   17.5894   -6.7183   -6.0184 C   0  0  1  0  0  0  0  0  0  0  0  0
   17.9144   -7.7699   -7.0333 C   0  0  0  0  0  0  0  0  0  0  0  0
   19.2933   -7.6771   -7.6045 C   0  0  2  0  0  0  0  0  0  0  0  0
   20.1384   -8.7013   -7.2217 O   0  0  0  0  0  0  0  0  0  0  0  0
   19.9403   -6.3252   -7.4059 C   0  0  2  0  0  0  0  0  0  0  0  0
   20.2923   -6.2588   -6.0477 O   0  0  0  0  0  0  0  0  0  0  0  0
   18.8377   -5.2994   -7.6525 C   0  0  1  0  0  0  0  0  0  0  0  0
   18.0236   -5.7682   -8.6965 O   0  0  0  0  0  0  0  0  0  0  0  0
   17.9845   -5.3361   -6.4044 C   0  0  1  0  0  0  0  0  0  0  0  0
   16.9155   -4.3781   -6.4173 N   0  0  0  0  0  0  0  0  0  0  0  0
   17.4726   -3.1090   -6.0044 C   0  0  1  0  0  0  0  0  0  0  0  0
   16.9938   -1.9466   -6.8174 C   0  0  1  0  0  0  0  0  0  0  0  0
   17.1756   -2.2875   -8.2778 C   0  0  0  0  0  0  0  0  0  0  0  0
   15.6903   -1.5706   -6.5526 O   0  0  0  0  0  0  0  0  0  0  0  0
   15.5264   -1.3611   -5.1926 C   0  0  1  0  0  0  0  0  0  0  0  0
   14.7384   -0.2667   -4.8933 O   0  0  0  0  0  0  0  0  0  0  0  0
   14.9792   -2.6416   -4.5734 C   0  0  1  0  0  0  0  0  0  0  0  0
   14.3518   -3.3701   -5.5882 O   0  0  0  0  0  0  0  0  0  0  0  0
   16.1130   -3.4982   -4.0230 C   0  0  2  0  0  0  0  0  0  0  0  0
   16.1004   -3.4377   -2.6216 O   0  0  0  0  0  0  0  0  0  0  0  0
   17.4167   -2.8870   -4.5232 C   0  0  1  0  0  0  0  0  0  0  0  0
   18.4582   -3.6226   -3.9414 O   0  0  0  0  0  0  0  0  0  0  0  0
   19.4181   -2.7873   -3.5856 O   0  0  0  0  0  0  0  0  0  0  0  0
   18.9641   -1.4739   -3.5211 C   0  0  0  0  0  3  0  0  0  0  0  0
   20.0493   -0.4740   -3.8596 C   0  0  0  0  0  3  0  0  0  0  0  0
   19.5430    0.5352   -4.6619 O   0  0  0  0  0  0  0  0  0  0  0  0
   20.5041    1.0431   -5.5483 C   0  0  0  0  0  3  0  0  0  0  0  0
   20.9482   -0.0537   -6.4771 C   0  0  0  0  0  2  0  0  0  0  0  0
  2  1  1  6
  2  3  1  0
  3  4  1  0
  4  5  1  1
  4  6  1  0
  6  7  1  1
  6  8  1  0
  8  9  1  6
  8 10  1  0
 10 11  1  6
 12 11  1  1
 12 13  1  0
 13 14  1  6
 13 15  1  0
 15 16  1  0
 16 17  1  6
 16 18  1  0
 18 19  1  6
 18 20  1  0
 20 21  1  1
 20 22  1  0
 22 23  1  1
 23 24  1  0
 24 25  1  0
 25 26  1  0
 26 27  1  0
 27 28  1  0
 28 29  1  0
 10  2  1  0
 22 12  1  0
M  RAD  4  25   2  26   2  28   2  29   3
M  END
>  <docking_score>  (3) 
-4.1239999999999997

$$$$
