
     RDKit          3D

 27 27  0  0  0  0  0  0  0  0999 V2000
   12.4880   -0.3251   -4.1551 O   0  0  0  0  0  0  0  0  0  0  0  0
   13.7013   -0.4930   -4.4388 C   0  0  0  0  0  0  0  0  0  0  0  0
   14.5612   -0.8153   -3.3996 O   0  0  0  0  0  0  0  0  0  0  0  0
   14.2622   -0.3683   -5.8050 C   0  0  0  0  0  0  0  0  0  0  0  0
   15.6890    0.0955   -5.7884 C   0  0  0  0  0  0  0  0  0  0  0  0
   16.5863   -1.0503   -6.1778 C   0  0  0  0  0  0  0  0  0  0  0  0
   15.8507   -2.2615   -6.6434 C   0  0  0  0  0  0  0  0  0  0  0  0
   16.4536   -3.5576   -6.2203 C   0  0  2  0  0  0  0  0  0  0  0  0
   17.5303   -4.0603   -7.1306 C   0  0  0  0  0  0  0  0  0  0  0  0
   18.2955   -5.1411   -6.3562 C   0  0  0  0  0  3  0  0  0  0  0  0
   17.4340   -6.3413   -6.1304 C   0  0  1  0  0  0  0  0  0  0  0  0
   16.6853   -6.2898   -4.8170 C   0  0  0  0  0  0  0  0  0  0  0  0
   17.6696   -6.2646   -3.6834 C   0  0  0  0  0  0  0  0  0  0  0  0
   17.5851   -4.9160   -2.9861 C   0  0  1  0  0  0  0  0  0  0  0  0
   16.5958   -4.9478   -1.9925 O   0  0  0  0  0  0  0  0  0  0  0  0
   18.9007   -4.5895   -2.3025 C   0  0  0  0  0  0  0  0  0  0  0  0
   19.8925   -4.6069   -3.3387 O   0  0  0  0  0  0  0  0  0  0  0  0
   21.0309   -3.8565   -3.1049 C   0  0  0  0  0  0  0  0  0  0  0  0
   21.1385   -2.6708   -3.6612 C   0  0  0  0  0  0  0  0  0  0  0  0
   20.0726   -2.1760   -4.5014 C   0  0  0  0  0  0  0  0  0  0  0  0
   19.6145   -0.9477   -4.2895 C   0  0  0  0  0  0  0  0  0  0  0  0
   20.2883    0.0658   -3.0098 Cl  0  0  0  0  0  0  0  0  0  0  0  0
   16.4424   -6.5632   -7.2535 C   0  0  2  0  0  0  0  0  0  0  0  0
   17.1579   -6.7010   -8.4412 O   0  0  0  0  0  0  0  0  0  0  0  0
   15.3927   -5.4978   -7.3135 C   0  0  0  0  0  0  0  0  0  0  0  0
   15.4176   -4.6443   -6.0603 C   0  0  2  0  0  0  0  0  0  0  0  0
   14.1834   -4.0865   -5.7706 O   0  0  0  0  0  0  0  0  0  0  0  0
  1  2  2  0
  2  3  1  0
  2  4  1  0
  4  5  1  0
  5  6  1  0
  6  7  1  0
  8  7  1  6
  8  9  1  0
  9 10  1  0
 10 11  1  0
 11 12  1  1
 12 13  1  0
 13 14  1  0
 14 15  1  1
 14 16  1  0
 16 17  1  0
 17 18  1  0
 18 19  2  3
 19 20  1  0
 20 21  2  3
 21 22  1  0
 11 23  1  0
 23 24  1  6
 23 25  1  0
 25 26  1  0
 26 27  1  6
 26  8  1  0
M  RAD  1  10   2
M  END
>  <docking_score>  (1) 
-3.754

$$$$

     RDKit          3D

 27 27  0  0  0  0  0  0  0  0999 V2000
    8.9323   13.1931    3.3595 O   0  0  0  0  0  0  0  0  0  0  0  0
    7.9388   12.8151    4.0308 C   0  0  0  0  0  0  0  0  0  0  0  0
    7.1727   13.7950    4.6442 O   0  0  0  0  0  0  0  0  0  0  0  0
    7.5410   11.3980    4.2044 C   0  0  0  0  0  0  0  0  0  0  0  0
    6.9328   10.8264    2.9576 C   0  0  0  0  0  0  0  0  0  0  0  0
    5.6023   11.4875    2.7081 C   0  0  0  0  0  0  0  0  0  0  0  0
    4.4553   10.5352    2.6583 C   0  0  0  0  0  0  0  0  0  0  0  0
    4.4993    9.4526    3.6823 C   0  0  2  0  0  0  0  0  0  0  0  0
    4.5138    8.0685    3.1122 C   0  0  0  0  0  0  0  0  0  0  0  0
    4.9634    7.1305    4.2397 C   0  0  0  0  0  3  0  0  0  0  0  0
    3.9276    7.0597    5.3149 C   0  0  1  0  0  0  0  0  0  0  0  0
    4.1505    8.0741    6.4145 C   0  0  0  0  0  0  0  0  0  0  0  0
    3.3912    7.6549    7.6402 C   0  0  0  0  0  0  0  0  0  0  0  0
    3.6274    8.6771    8.7409 C   0  0  1  0  0  0  0  0  0  0  0  0
    3.7675    9.9581    8.1876 O   0  0  0  0  0  0  0  0  0  0  0  0
    2.4404    8.7215    9.6864 C   0  0  0  0  0  0  0  0  0  0  0  0
    2.9422    9.2643   10.9157 O   0  0  0  0  0  0  0  0  0  0  0  0
    4.0460    8.6292   11.4563 C   0  0  0  0  0  0  0  0  0  0  0  0
    4.4828    9.0047   12.6375 C   0  0  0  0  0  0  0  0  0  0  0  0
    3.8065   10.0671   13.3452 C   0  0  0  0  0  0  0  0  0  0  0  0
    4.5110   11.1268   13.7247 C   0  0  0  0  0  0  0  0  0  0  0  0
    6.2383   11.2427   13.3759 Cl  0  0  0  0  0  0  0  0  0  0  0  0
    2.5209    7.2189    4.7765 C   0  0  2  0  0  0  0  0  0  0  0  0
    2.3034    6.2177    3.8321 O   0  0  0  0  0  0  0  0  0  0  0  0
    2.2575    8.5960    4.2525 C   0  0  0  0  0  0  0  0  0  0  0  0
    3.3595    9.5514    4.6675 C   0  0  2  0  0  0  0  0  0  0  0  0
    2.9220   10.8623    4.7593 O   0  0  0  0  0  0  0  0  0  0  0  0
  1  2  2  0
  2  3  1  0
  2  4  1  0
  4  5  1  0
  5  6  1  0
  6  7  1  0
  8  7  1  6
  8  9  1  0
  9 10  1  0
 10 11  1  0
 11 12  1  1
 12 13  1  0
 13 14  1  0
 14 15  1  6
 14 16  1  0
 16 17  1  0
 17 18  1  0
 18 19  2  3
 19 20  1  0
 20 21  2  3
 21 22  1  0
 11 23  1  0
 23 24  1  6
 23 25  1  0
 25 26  1  0
 26 27  1  6
 26  8  1  0
M  RAD  1  10   2
M  END
>  <docking_score>  (2) 
-3.121

$$$$

     RDKit          3D

 27 27  0  0  0  0  0  0  0  0999 V2000
   18.0349   -8.8511   -4.8681 O   0  0  0  0  0  0  0  0  0  0  0  0
   17.2307   -8.3575   -5.6989 C   0  0  0  0  0  0  0  0  0  0  0  0
   15.8973   -8.2767   -5.3262 O   0  0  0  0  0  0  0  0  0  0  0  0
   17.6189   -7.8614   -7.0404 C   0  0  0  0  0  0  0  0  0  0  0  0
   16.8098   -6.6682   -7.4561 C   0  0  0  0  0  0  0  0  0  0  0  0
   17.2868   -5.4579   -6.6965 C   0  0  0  0  0  0  0  0  0  0  0  0
   16.5730   -4.1989   -7.0577 C   0  0  0  0  0  0  0  0  0  0  0  0
   16.1563   -3.3634   -5.8954 C   0  0  2  0  0  0  0  0  0  0  0  0
   14.7228   -2.9336   -5.9307 C   0  0  0  0  0  0  0  0  0  0  0  0
   14.3691   -2.4566   -4.5163 C   0  0  0  0  0  3  0  0  0  0  0  0
   15.1070   -1.2010   -4.1804 C   0  0  1  0  0  0  0  0  0  0  0  0
   16.4264   -1.4611   -3.4880 C   0  0  0  0  0  0  0  0  0  0  0  0
   16.1772   -2.1886   -2.1984 C   0  0  0  0  0  0  0  0  0  0  0  0
   17.3007   -3.1875   -1.9700 C   0  0  1  0  0  0  0  0  0  0  0  0
   17.0576   -4.3616   -2.6973 O   0  0  0  0  0  0  0  0  0  0  0  0
   18.6216   -2.6199   -2.4579 C   0  0  0  0  0  0  0  0  0  0  0  0
   19.2235   -3.6568   -3.2455 O   0  0  0  0  0  0  0  0  0  0  0  0
   20.5463   -3.9467   -2.9622 C   0  0  0  0  0  0  0  0  0  0  0  0
   21.0516   -5.0874   -3.3747 C   0  0  0  0  0  0  0  0  0  0  0  0
   20.2216   -6.0120   -4.1119 C   0  0  0  0  0  0  0  0  0  0  0  0
   20.2937   -6.0123   -5.4379 C   0  0  0  0  0  0  0  0  0  0  0  0
   21.3781   -4.9091   -6.2898 Cl  0  0  0  0  0  0  0  0  0  0  0  0
   15.3519   -0.3297   -5.3948 C   0  0  2  0  0  0  0  0  0  0  0  0
   14.1174   -0.0246   -5.9644 O   0  0  0  0  0  0  0  0  0  0  0  0
   16.3149   -0.9462   -6.3608 C   0  0  0  0  0  0  0  0  0  0  0  0
   17.0195   -2.1349   -5.7362 C   0  0  2  0  0  0  0  0  0  0  0  0
   18.2723   -2.3594   -6.2825 O   0  0  0  0  0  0  0  0  0  0  0  0
  1  2  2  0
  2  3  1  0
  2  4  1  0
  4  5  1  0
  5  6  1  0
  6  7  1  0
  8  7  1  6
  8  9  1  0
  9 10  1  0
 10 11  1  0
 11 12  1  6
 12 13  1  0
 13 14  1  0
 14 15  1  6
 14 16  1  0
 16 17  1  0
 17 18  1  0
 18 19  2  3
 19 20  1  0
 20 21  2  3
 21 22  1  0
 11 23  1  0
 23 24  1  6
 23 25  1  0
 25 26  1  0
 26 27  1  6
 26  8  1  0
M  RAD  1  10   2
M  END
>  <docking_score>  (3) 
-3.0939999999999999

$$$$
