
     RDKit          3D

 28 30  0  0  0  0  0  0  0  0999 V2000
    3.1321   15.9990    7.2100 O   0  0  0  0  0  0  0  0  0  0  0  0
    3.5768   15.3202    6.2019 C   0  0  0  0  0  0  0  0  0  0  0  0
    2.5625   14.6007    5.5427 N   0  0  0  0  0  0  0  0  0  0  0  0
    2.2582   14.6554    4.1181 C   0  0  0  0  0  0  0  0  0  0  0  0
    3.0070   13.5152    3.4460 C   0  0  0  0  0  0  0  0  0  0  0  0
    4.2495   13.1898    3.8905 C   0  0  0  0  0  0  0  0  0  0  0  0
    4.9590   12.1665    3.3408 C   0  0  0  0  0  0  0  0  0  0  0  0
    4.3808   11.4651    2.3143 C   0  0  0  0  0  0  0  0  0  0  0  0
    5.0483   10.4099    1.7089 O   0  0  0  0  0  0  0  0  0  0  0  0
    3.1189   11.7545    1.8218 C   0  0  0  0  0  0  0  0  0  0  0  0
    2.4456   12.8067    2.4220 C   0  0  0  0  0  0  0  0  0  0  0  0
    4.9086   15.2851    5.7880 C   0  0  0  0  0  0  0  0  0  0  0  0
    5.9581   14.6931    6.2169 N   0  0  0  0  0  0  0  0  0  0  0  0
    7.2809   14.7829    5.6477 C   0  0  0  0  0  0  0  0  0  0  0  0
    8.1188   15.8149    6.0210 C   0  0  0  0  0  0  0  0  0  0  0  0
    9.3959   16.0288    5.5825 C   0  0  0  0  0  0  0  0  0  0  0  0
    9.8626   15.0945    4.6715 C   0  0  0  0  0  0  0  0  0  0  0  0
   11.4767   15.2081    3.9998 Cl  0  0  0  0  0  0  0  0  0  0  0  0
    9.0812   14.0702    4.2780 C   0  0  0  0  0  0  0  0  0  0  0  0
    7.7591   13.8329    4.7208 C   0  0  0  0  0  0  0  0  0  0  0  0
    7.0262   12.7475    4.2769 C   0  0  0  0  0  0  0  0  0  0  0  0
    6.3298   11.8427    3.8712 C   0  0  0  0  0  0  0  0  0  0  0  0
    6.5316   10.3966    3.7825 N   0  0  0  0  0  0  0  0  0  0  0  0
    6.2515    9.6925    4.9941 C   0  0  0  0  0  0  0  0  0  0  0  0
    5.1331    9.9989    5.6076 C   0  0  0  0  0  0  0  0  0  0  0  0
    4.6589    9.3962    6.8608 C   0  0  0  0  0  0  0  0  0  0  0  0
    3.4901   10.0751    7.3247 N   0  0  0  0  0  3  0  0  0  0  0  0
    2.6573   10.6603    6.5720 C   0  0  0  0  0  0  0  0  0  0  0  0
  1  2  2  0
  2  3  1  0
  3  4  1  0
  4  5  1  0
  5  6  1  0
  6  7  2  0
  7  8  1  0
  8  9  1  0
  8 10  2  0
 10 11  1  0
  2 12  1  0
 12 13  2  3
 13 14  1  0
 14 15  2  0
 15 16  1  0
 16 17  2  0
 17 18  1  0
 17 19  1  0
 19 20  2  0
 20 21  1  0
 21 22  2  3
 22 23  1  0
 23 24  1  0
 24 25  2  3
 25 26  1  0
 26 27  1  0
 27 28  2  0
 11  5  2  0
 22  7  1  0
 20 14  1  0
M  CHG  1  27   1
M  RAD  1  27   2
M  END
>  <docking_score>  (1) 
-4.0460000000000003

$$$$

     RDKit          3D

 28 30  0  0  0  0  0  0  0  0999 V2000
   20.6003    0.7512   -6.0992 O   0  0  0  0  0  0  0  0  0  0  0  0
   20.0603   -0.2067   -5.4168 C   0  0  0  0  0  0  0  0  0  0  0  0
   21.0132   -1.0824   -4.8635 N   0  0  0  0  0  0  0  0  0  0  0  0
   21.1183   -1.4609   -3.4596 C   0  0  0  0  0  0  0  0  0  0  0  0
   20.3478   -2.7591   -3.2765 C   0  0  0  0  0  0  0  0  0  0  0  0
   19.1963   -2.9463   -3.9738 C   0  0  0  0  0  0  0  0  0  0  0  0
   18.4749   -4.0954   -3.8654 C   0  0  0  0  0  0  0  0  0  0  0  0
   18.9457   -5.0702   -3.0238 C   0  0  0  0  0  0  0  0  0  0  0  0
   18.2600   -6.2662   -2.8663 O   0  0  0  0  0  0  0  0  0  0  0  0
   20.1118   -4.9317   -2.2893 C   0  0  0  0  0  0  0  0  0  0  0  0
   20.8026   -3.7399   -2.4418 C   0  0  0  0  0  0  0  0  0  0  0  0
   18.6885   -0.3796   -5.2306 C   0  0  0  0  0  0  0  0  0  0  0  0
   17.7402   -0.8235   -5.9651 N   0  0  0  0  0  0  0  0  0  0  0  0
   16.3496   -0.9246   -5.5937 C   0  0  0  0  0  0  0  0  0  0  0  0
   15.5157    0.1636   -5.7581 C   0  0  0  0  0  0  0  0  0  0  0  0
   14.1813    0.2209   -5.4662 C   0  0  0  0  0  0  0  0  0  0  0  0
   13.6464   -0.9510   -4.9552 C   0  0  0  0  0  0  0  0  0  0  0  0
   11.9525   -1.0635   -4.5224 Cl  0  0  0  0  0  0  0  0  0  0  0  0
   14.4213   -2.0385   -4.7776 C   0  0  0  0  0  0  0  0  0  0  0  0
   15.8021   -2.1164   -5.0741 C   0  0  0  0  0  0  0  0  0  0  0  0
   16.5253   -3.2780   -4.8744 C   0  0  0  0  0  0  0  0  0  0  0  0
   17.2080   -4.2562   -4.6619 C   0  0  0  0  0  0  0  0  0  0  0  0
   17.0740   -5.6627   -5.0411 N   0  0  0  0  0  0  0  0  0  0  0  0
   17.5449   -5.9600   -6.3571 C   0  0  0  0  0  0  0  0  0  0  0  0
   18.4308   -6.9220   -6.4618 C   0  0  0  0  0  0  0  0  0  0  0  0
   19.0404   -7.3827   -7.7167 C   0  0  0  0  0  0  0  0  0  0  0  0
   20.3542   -6.8384   -7.8572 N   0  0  0  0  0  3  0  0  0  0  0  0
   20.9214   -6.1077   -6.9929 C   0  0  0  0  0  0  0  0  0  0  0  0
  1  2  2  0
  2  3  1  0
  3  4  1  0
  4  5  1  0
  5  6  1  0
  6  7  2  0
  7  8  1  0
  8  9  1  0
  8 10  2  0
 10 11  1  0
  2 12  1  0
 12 13  2  3
 13 14  1  0
 14 15  2  0
 15 16  1  0
 16 17  2  0
 17 18  1  0
 17 19  1  0
 19 20  2  0
 20 21  1  0
 21 22  2  3
 22 23  1  0
 23 24  1  0
 24 25  2  3
 25 26  1  0
 26 27  1  0
 27 28  2  0
 11  5  2  0
 22  7  1  0
 20 14  1  0
M  CHG  1  27   1
M  RAD  1  27   2
M  END
>  <docking_score>  (2) 
-4.0110000000000001

$$$$

     RDKit          3D

 28 30  0  0  0  0  0  0  0  0999 V2000
   14.0407   -3.9737   -6.3317 O   0  0  0  0  0  0  0  0  0  0  0  0
   15.1877   -4.1284   -5.7527 C   0  0  0  0  0  0  0  0  0  0  0  0
   15.3578   -3.2722   -4.6486 N   0  0  0  0  0  0  0  0  0  0  0  0
   15.7223   -3.6768   -3.2964 C   0  0  0  0  0  0  0  0  0  0  0  0
   17.2324   -3.5490   -3.1717 C   0  0  0  0  0  0  0  0  0  0  0  0
   18.0115   -3.8688   -4.2385 C   0  0  0  0  0  0  0  0  0  0  0  0
   19.3671   -3.7555   -4.1920 C   0  0  0  0  0  0  0  0  0  0  0  0
   19.9326   -3.3058   -3.0266 C   0  0  0  0  0  0  0  0  0  0  0  0
   21.3083   -3.1664   -2.9108 O   0  0  0  0  0  0  0  0  0  0  0  0
   19.1867   -2.9670   -1.9097 C   0  0  0  0  0  0  0  0  0  0  0  0
   17.8117   -3.1030   -2.0179 C   0  0  0  0  0  0  0  0  0  0  0  0
   16.1687   -5.0357   -6.1536 C   0  0  0  0  0  0  0  0  0  0  0  0
   17.0254   -5.0576   -7.1031 N   0  0  0  0  0  0  0  0  0  0  0  0
   17.9777   -6.1085   -7.3686 C   0  0  0  0  0  0  0  0  0  0  0  0
   17.6030   -7.1956   -8.1330 C   0  0  0  0  0  0  0  0  0  0  0  0
   18.3886   -8.2593   -8.4799 C   0  0  0  0  0  0  0  0  0  0  0  0
   19.6865   -8.2063   -7.9969 C   0  0  0  0  0  0  0  0  0  0  0  0
   20.8363   -9.4828   -8.3398 Cl  0  0  0  0  0  0  0  0  0  0  0  0
   20.0975   -7.1653   -7.2472 C   0  0  0  0  0  0  0  0  0  0  0  0
   19.2998   -6.0568   -6.8791 C   0  0  0  0  0  0  0  0  0  0  0  0
   19.8026   -5.0194   -6.1155 C   0  0  0  0  0  0  0  0  0  0  0  0
   20.1858   -4.1184   -5.4016 C   0  0  0  0  0  0  0  0  0  0  0  0
   21.3468   -3.2303   -5.4593 N   0  0  0  0  0  0  0  0  0  0  0  0
   21.0183   -1.8502   -5.6298 C   0  0  0  0  0  0  0  0  0  0  0  0
   21.3820   -1.2940   -6.7609 C   0  0  0  0  0  0  0  0  0  0  0  0
   21.1425    0.1066   -7.1347 C   0  0  0  0  0  0  0  0  0  0  0  0
   20.6073    0.8299   -6.0245 N   0  0  0  0  0  3  0  0  0  0  0  0
   21.2871    1.5836   -5.2678 C   0  0  0  0  0  0  0  0  0  0  0  0
  1  2  2  0
  2  3  1  0
  3  4  1  0
  4  5  1  0
  5  6  1  0
  6  7  2  0
  7  8  1  0
  8  9  1  0
  8 10  2  0
 10 11  1  0
  2 12  1  0
 12 13  2  3
 13 14  1  0
 14 15  2  0
 15 16  1  0
 16 17  2  0
 17 18  1  0
 17 19  1  0
 19 20  2  0
 20 21  1  0
 21 22  2  3
 22 23  1  0
 23 24  1  0
 24 25  2  3
 25 26  1  0
 26 27  1  0
 27 28  2  0
 11  5  2  0
 22  7  1  0
 20 14  1  0
M  CHG  1  27   1
M  RAD  1  27   2
M  END
>  <docking_score>  (3) 
-2.968

$$$$
