
     RDKit          3D

 68 69  0  0  0  0  0  0  0  0999 V2000
    3.0036    9.4412   -5.8296 C   0  0  0  0  0  0  0  0  0  0  0  0
    4.3475    8.8996   -6.0826 C   0  0  0  0  0  0  0  0  0  0  0  0
    4.6032    8.5687   -7.5317 C   0  0  0  0  0  0  0  0  0  0  0  0
    5.4737    9.5981   -5.4160 C   0  0  0  0  0  0  0  0  0  0  0  0
    5.5504    9.3987   -3.9462 C   0  0  0  0  0  0  0  0  0  0  0  0
    6.2991   10.4890   -3.2446 C   0  0  0  0  0  0  0  0  0  0  0  0
    6.9335   10.0652   -1.9581 C   0  0  1  0  0  0  0  0  0  0  0  0
    7.9603   10.9801   -1.3963 C   0  0  0  0  0  2  0  0  0  0  0  0
    5.8591    9.7241   -0.9268 C   0  0  0  0  0  0  0  0  0  0  0  0
    6.5445    9.4313    0.4056 C   0  0  0  0  0  0  0  0  0  0  0  0
    5.7224   10.0915    1.4745 C   0  0  2  0  0  0  0  0  0  0  0  0
    6.3044    9.9667    2.8457 C   0  0  0  0  0  3  0  0  0  0  0  0
    6.9940   11.2732    3.2063 C   0  0  0  0  0  3  0  0  0  0  0  0
    8.4859   11.0115    3.1821 C   0  0  0  0  0  0  0  0  0  0  0  0
    8.8328    9.9523    2.1683 C   0  0  0  0  0  0  0  0  0  0  0  0
    4.2857    9.5873    1.4617 C   0  0  2  0  0  0  0  0  0  0  0  0
    3.3120   10.7386    1.6446 C   0  0  0  0  0  3  0  0  0  0  0  0
    4.0414   12.0532    1.7303 C   0  0  0  0  0  0  0  0  0  0  0  0
    4.1258    8.6153    2.6294 C   0  0  0  0  0  0  0  0  0  0  0  0
    4.3414    9.3542    3.7906 O   0  0  0  0  0  0  0  0  0  0  0  0
    3.1607    9.5131    4.4891 C   0  0  1  0  0  0  0  0  0  0  0  0
    2.2589    8.3083    4.2096 C   0  0  0  0  0  0  0  0  0  0  0  0
    3.3663    9.5261    5.9981 C   0  0  1  0  0  0  0  0  0  0  0  0
    2.3408    8.6178    6.6741 C   0  0  0  0  0  3  0  0  0  0  0  0
    2.3391    8.9614    8.1469 C   0  0  0  0  0  0  0  0  0  0  0  0
    3.6290    9.0343    8.6681 O   0  0  0  0  0  0  0  0  0  0  0  0
    4.7149    8.8572    6.2473 C   0  0  1  0  0  0  0  0  0  0  0  0
    5.7500    9.8284    5.9509 N   0  0  0  0  0  2  0  0  0  0  0  0
    4.8558    8.3330    7.5694 N   0  0  0  0  0  0  0  0  0  0  0  0
    3.8690    8.9479    8.4305 C   0  0  0  0  0  0  0  0  0  0  0  0
    4.1404   10.4285    8.6213 C   0  0  1  0  0  0  0  0  0  0  0  0
    3.1801   11.0115    9.6034 C   0  0  0  0  0  0  0  0  0  0  0  0
    5.5842   10.6006    8.9601 C   0  0  0  0  0  3  0  0  0  0  0  0
    5.8933   10.6128   10.4177 C   0  0  2  0  0  0  0  0  0  0  0  0
    6.9777    9.6829   10.8458 C   0  0  0  0  0  0  0  0  0  0  0  0
    6.5014    8.6402   11.8336 C   0  0  0  0  0  0  0  0  0  0  0  0
    5.8057    9.2380   13.0129 C   0  0  2  0  0  0  0  0  0  0  0  0
    4.7024    8.2983   13.4503 C   0  0  1  0  0  0  0  0  0  0  0  0
    3.4320    8.6084   12.6915 C   0  0  0  0  0  2  0  0  0  0  0  0
    5.1306    6.8944   13.0805 C   0  0  0  0  0  3  0  0  0  0  0  0
    6.6382    6.7670   13.0885 C   0  0  0  0  0  3  0  0  0  0  0  0
    7.0838    6.5667   11.6545 C   0  0  0  0  0  0  0  0  0  0  0  0
    5.2038   10.5860   12.7588 C   0  0  0  0  0  0  0  0  0  0  0  0
    4.7120   10.6313   11.3279 C   0  0  1  0  0  0  0  0  0  0  0  0
    4.0521   12.0064   11.1603 C   0  0  1  0  0  0  0  0  0  0  0  0
    2.7766   12.1117   11.9462 C   0  0  0  0  0  2  0  0  0  0  0  0
    5.0589   13.0579   11.5696 C   0  0  0  0  0  3  0  0  0  0  0  0
    5.0797   14.0926   10.4834 C   0  0  0  0  0  0  0  0  0  0  0  0
    6.2717   14.4050    9.9609 C   0  0  0  0  0  0  0  0  0  0  0  0
    7.5409   13.7720   10.4153 C   0  0  2  0  0  0  0  0  0  0  0  0
    8.3398   14.6165   11.3562 C   0  0  0  0  0  0  0  0  0  0  0  0
    9.5119   13.8641   11.8826 C   0  0  0  0  0  0  0  0  0  0  0  0
   10.1691   14.6538   12.9926 C   0  0  0  0  0  0  0  0  0  0  0  0
   11.1326   15.6450   12.3498 C   0  0  0  0  0  0  0  0  0  0  0  0
    8.3713   13.3027    9.2347 C   0  0  1  0  0  0  0  0  0  0  0  0
    8.4557   11.9175    9.3108 O   0  0  0  0  0  0  0  0  0  0  0  0
    9.5249   11.5253    9.9754 O   0  0  0  0  0  0  0  0  0  0  0  0
    7.8414   13.7436    7.9131 C   0  0  1  0  0  0  0  0  0  0  0  0
    7.8559   12.6957    6.8462 C   0  0  0  0  0  3  0  0  0  0  0  0
    7.2880   13.2795    5.5933 C   0  0  1  0  0  0  0  0  0  0  0  0
    8.1230   13.0780    4.3712 C   0  0  0  0  0  3  0  0  0  0  0  0
    8.9732   11.8300    4.5649 C   0  0  0  0  0  0  0  0  0  0  0  0
    5.8702   12.8258    5.4260 C   0  0  0  0  0  0  0  0  0  0  0  0
    4.9741   13.7277    6.2437 C   0  0  2  0  0  0  0  0  0  0  0  0
    4.8477   15.1073    5.6364 C   0  0  0  0  0  3  0  0  0  0  0  0
    4.4015   14.9196    4.2012 C   0  0  0  0  0  0  0  0  0  0  0  0
    5.3375   13.7458    7.6924 C   0  0  0  0  0  0  0  0  0  0  0  0
    6.5746   14.5285    7.9948 C   0  0  0  0  0  3  0  0  0  0  0  0
  1  2  1  0
  2  3  1  0
  2  4  1  0
  4  5  1  0
  5  6  1  0
  6  7  1  0
  7  8  1  1
  7  9  1  0
  9 10  1  0
 11 10  1  6
 11 12  1  0
 12 13  1  0
 13 14  1  0
 14 15  1  0
 11 16  1  0
 16 17  1  1
 17 18  1  0
 16 19  1  0
 19 20  1  0
 20 21  1  0
 21 22  1  1
 21 23  1  0
 23 24  1  1
 24 25  1  0
 25 26  1  0
 23 27  1  0
 27 28  1  1
 27 29  1  0
 29 30  1  0
 30 31  1  0
 31 32  1  1
 31 33  1  0
 34 33  1  6
 34 35  1  0
 35 36  1  0
 37 36  1  6
 37 38  1  0
 38 39  1  6
 38 40  1  0
 40 41  1  0
 41 42  1  0
 37 43  1  0
 44 43  1  1
 44 45  1  0
 45 46  1  1
 45 47  1  0
 47 48  1  0
 48 49  2  3
 49 50  1  0
 50 51  1  6
 51 52  1  0
 52 53  1  0
 53 54  1  0
 50 55  1  0
 55 56  1  6
 56 57  1  0
 55 58  1  0
 58 59  1  6
 59 60  1  0
 60 61  1  6
 61 62  1  0
 60 63  1  0
 63 64  1  0
 64 65  1  6
 65 66  1  0
 64 67  1  0
 67 68  1  0
 44 34  1  0
 68 58  1  0
M  RAD  8   8   3  12   2  13   2  17   2  24   2  28   2  33   2  39   3
M  RAD  8  40   2  41   2  46   3  47   2  59   2  61   2  65   2  68   2
M  END
>  <docking_score>  (1) 
37.988

$$$$

     RDKit          3D

 68 69  0  0  0  0  0  0  0  0999 V2000
    3.1983   10.0488   10.6292 C   0  0  0  0  0  0  0  0  0  0  0  0
    4.3967   10.2228   11.4640 C   0  0  0  0  0  0  0  0  0  0  0  0
    4.8742   11.6511   11.5463 C   0  0  0  0  0  0  0  0  0  0  0  0
    4.4003    9.5101   12.7651 C   0  0  0  0  0  0  0  0  0  0  0  0
    5.7490    9.1901   13.2984 C   0  0  0  0  0  0  0  0  0  0  0  0
    6.6156    8.4730   12.3103 C   0  0  0  0  0  0  0  0  0  0  0  0
    8.0122    9.0015   12.2250 C   0  0  1  0  0  0  0  0  0  0  0  0
    8.6880    8.8700   10.9085 C   0  0  0  0  0  2  0  0  0  0  0  0
    8.0659   10.4375   12.7440 C   0  0  0  0  0  0  0  0  0  0  0  0
    9.4877   10.9633   12.5635 C   0  0  0  0  0  0  0  0  0  0  0  0
    9.5607   12.2810   13.2796 C   0  0  2  0  0  0  0  0  0  0  0  0
   10.6191   12.3361   14.3339 C   0  0  0  0  0  3  0  0  0  0  0  0
   10.5718   11.0498   15.1436 C   0  0  0  0  0  3  0  0  0  0  0  0
   12.0050   10.6288   15.3958 C   0  0  0  0  0  0  0  0  0  0  0  0
   12.0844    9.1674   15.7540 C   0  0  0  0  0  0  0  0  0  0  0  0
    8.2103   12.6712   13.8648 C   0  0  2  0  0  0  0  0  0  0  0  0
    7.1399   12.6743   12.7871 C   0  0  0  0  0  3  0  0  0  0  0  0
    6.5469   11.3013   12.6121 C   0  0  0  0  0  0  0  0  0  0  0  0
    8.3426   14.0830   14.4334 C   0  0  0  0  0  0  0  0  0  0  0  0
    8.3422   14.9496   13.3426 O   0  0  0  0  0  0  0  0  0  0  0  0
    9.5243   15.6615   13.2900 C   0  0  1  0  0  0  0  0  0  0  0  0
   10.1685   15.6470   14.6784 C   0  0  0  0  0  0  0  0  0  0  0  0
   10.5509   15.0306   12.3585 C   0  0  1  0  0  0  0  0  0  0  0  0
   11.4690   14.0976   13.1461 C   0  0  0  0  0  3  0  0  0  0  0  0
   12.3248   14.9630   14.0437 C   0  0  0  0  0  0  0  0  0  0  0  0
   13.0475   15.9104   13.3218 O   0  0  0  0  0  0  0  0  0  0  0  0
    9.7667   14.1176   11.4206 C   0  0  1  0  0  0  0  0  0  0  0  0
    8.3784   14.5342   11.4588 N   0  0  0  0  0  2  0  0  0  0  0  0
   10.2703   14.1059   10.0832 N   0  0  0  0  0  0  0  0  0  0  0  0
    9.5946   13.0707    9.3316 C   0  0  0  0  0  0  0  0  0  0  0  0
    8.9403   12.0533   10.2475 C   0  0  1  0  0  0  0  0  0  0  0  0
    9.4700   12.1864   11.6362 C   0  0  0  0  0  0  0  0  0  0  0  0
    7.4593   12.1856   10.1131 C   0  0  0  0  0  3  0  0  0  0  0  0
    6.9042   13.5070   10.5206 C   0  0  2  0  0  0  0  0  0  0  0  0
    6.6474   13.6661   11.9810 C   0  0  0  0  0  0  0  0  0  0  0  0
    5.1903   13.9252   12.2964 C   0  0  0  0  0  0  0  0  0  0  0  0
    4.6273   15.0715   11.5210 C   0  0  2  0  0  0  0  0  0  0  0  0
    3.1767   14.7751   11.2055 C   0  0  1  0  0  0  0  0  0  0  0  0
    2.4133   16.0686   11.0328 C   0  0  0  0  0  2  0  0  0  0  0  0
    3.1426   14.0384    9.8837 C   0  0  0  0  0  3  0  0  0  0  0  0
    2.4433   14.8594    8.8225 C   0  0  0  0  0  3  0  0  0  0  0  0
    3.4170   15.9226    8.3572 C   0  0  0  0  0  0  0  0  0  0  0  0
    5.3403   15.3589   10.2353 C   0  0  0  0  0  0  0  0  0  0  0  0
    5.8221   14.0491    9.6492 C   0  0  1  0  0  0  0  0  0  0  0  0
    6.4787   14.4113    8.3104 C   0  0  1  0  0  0  0  0  0  0  0  0
    7.9424   14.7068    8.4697 C   0  0  0  0  0  2  0  0  0  0  0  0
    6.2316   13.2710    7.3484 C   0  0  0  0  0  3  0  0  0  0  0  0
    7.4633   12.4144    7.3569 C   0  0  0  0  0  0  0  0  0  0  0  0
    7.4145   11.2685    6.6669 C   0  0  0  0  0  0  0  0  0  0  0  0
    6.2061   10.8335    5.9129 C   0  0  2  0  0  0  0  0  0  0  0  0
    5.1644   10.1743    6.7598 C   0  0  0  0  0  0  0  0  0  0  0  0
    5.6875    8.9194    7.3667 C   0  0  0  0  0  0  0  0  0  0  0  0
    5.3287    7.7401    6.4903 C   0  0  0  0  0  0  0  0  0  0  0  0
    5.0225    8.2741    5.0956 C   0  0  0  0  0  0  0  0  0  0  0  0
    6.5855    9.9783    4.7178 C   0  0  1  0  0  0  0  0  0  0  0  0
    5.7238    8.8880    4.6969 O   0  0  0  0  0  0  0  0  0  0  0  0
    4.4791    9.2491    4.4537 O   0  0  0  0  0  0  0  0  0  0  0  0
    6.5647   10.7131    3.4212 C   0  0  1  0  0  0  0  0  0  0  0  0
    5.5491   11.8074    3.3325 C   0  0  0  0  0  3  0  0  0  0  0  0
    5.6572   12.4539    1.9895 C   0  0  1  0  0  0  0  0  0  0  0  0
    4.3654   12.5908    1.2519 C   0  0  0  0  0  3  0  0  0  0  0  0
    4.6455   12.4842   -0.2407 C   0  0  0  0  0  0  0  0  0  0  0  0
    6.4112   13.7424    2.1121 C   0  0  0  0  0  0  0  0  0  0  0  0
    7.8922   13.4412    2.0781 C   0  0  2  0  0  0  0  0  0  0  0  0
    8.3587   13.0316    0.6987 C   0  0  0  0  0  3  0  0  0  0  0  0
    8.8448   14.2874    0.0053 C   0  0  0  0  0  0  0  0  0  0  0  0
    8.3158   12.4966    3.1549 C   0  0  0  0  0  0  0  0  0  0  0  0
    7.9166   11.0779    2.9049 C   0  0  0  0  0  3  0  0  0  0  0  0
  1  2  1  0
  2  3  1  0
  2  4  1  0
  4  5  1  0
  5  6  1  0
  6  7  1  0
  7  8  1  6
  7  9  1  0
  9 10  1  0
 11 10  1  1
 11 12  1  0
 12 13  1  0
 13 14  1  0
 14 15  1  0
 11 16  1  0
 16 17  1  6
 17 18  1  0
 16 19  1  0
 19 20  1  0
 20 21  1  0
 21 22  1  1
 21 23  1  0
 23 24  1  1
 24 25  1  0
 25 26  1  0
 23 27  1  0
 27 28  1  6
 27 29  1  0
 29 30  1  0
 30 31  1  0
 31 32  1  1
 31 33  1  0
 34 33  1  1
 34 35  1  0
 35 36  1  0
 37 36  1  6
 37 38  1  0
 38 39  1  6
 38 40  1  0
 40 41  1  0
 41 42  1  0
 37 43  1  0
 44 43  1  1
 44 45  1  0
 45 46  1  1
 45 47  1  0
 47 48  1  0
 48 49  2  3
 49 50  1  0
 50 51  1  1
 51 52  1  0
 52 53  1  0
 53 54  1  0
 50 55  1  0
 55 56  1  6
 56 57  1  0
 55 58  1  0
 58 59  1  1
 59 60  1  0
 60 61  1  1
 61 62  1  0
 60 63  1  0
 63 64  1  0
 64 65  1  6
 65 66  1  0
 64 67  1  0
 67 68  1  0
 44 34  1  0
 68 58  1  0
M  RAD  8   8   3  12   2  13   2  17   2  24   2  28   2  33   2  39   3
M  RAD  8  40   2  41   2  46   3  47   2  59   2  61   2  65   2  68   2
M  END
>  <docking_score>  (2) 
39.719000000000001

$$$$
