
     RDKit          3D

 35 36  0  0  0  0  0  0  0  0999 V2000
    7.2818   14.8187   12.4440 C   0  0  0  0  0  0  0  0  0  0  0  0
    7.6890   13.4462   11.9554 C   0  0  1  0  0  0  0  0  0  0  0  0
    7.0937   12.3608   12.8265 C   0  0  0  0  0  0  0  0  0  0  0  0
    5.8030   12.8696   13.3961 C   0  0  2  0  0  0  0  0  0  0  0  0
    4.9623   11.8171   13.8126 O   0  0  0  0  0  0  0  0  0  0  0  0
    5.1061   13.8665   12.5469 C   0  0  2  0  0  0  0  0  0  0  0  0
    3.8707   14.1562   13.1203 O   0  0  0  0  0  0  0  0  0  0  0  0
    4.8992   13.4878   11.1328 C   0  0  1  0  0  0  0  0  0  0  0  0
    5.8668   12.6571   10.6033 O   0  0  0  0  0  0  0  0  0  0  0  0
    7.1242   13.2435   10.5663 C   0  0  1  0  0  0  0  0  0  0  0  0
    7.1615   14.4824    9.8642 N   0  0  0  0  0  0  0  0  0  0  0  0
    6.1869   14.4345    8.7942 C   0  0  0  0  0  3  0  0  0  0  0  0
    5.9225   15.8105    8.2366 C   0  0  0  0  0  0  0  0  0  0  0  0
    6.6024   16.0743    6.9199 C   0  0  0  0  0  2  0  0  0  0  0  0
    7.1792   14.8749    6.4437 O   0  0  0  0  0  0  0  0  0  0  0  0
    3.5538   12.8235   10.9758 C   0  0  1  0  0  0  0  0  0  0  0  0
    2.8463   13.2616    9.8737 O   0  0  0  0  0  0  0  0  0  0  0  0
    3.6374   11.3381   11.0947 C   0  0  1  0  0  0  0  0  0  0  0  0
    2.6961   10.8048   11.9575 O   0  0  0  0  0  0  0  0  0  0  0  0
    3.4663   10.6763    9.7463 C   0  0  2  0  0  0  0  0  0  0  0  0
    2.3689   11.1667    9.0702 O   0  0  0  0  0  0  0  0  0  0  0  0
    3.3029    9.1795    9.8851 C   0  0  0  0  0  3  0  0  0  0  0  0
    3.7806    8.6820   11.2327 C   0  0  0  0  0  0  0  0  0  0  0  0
    3.1489    7.3565   11.5754 C   0  0  0  0  0  3  0  0  0  0  0  0
    2.4857    7.4850   12.8007 O   0  0  0  0  0  0  0  0  0  0  0  0
    3.2902    8.1310   13.7304 C   0  0  0  0  0  3  0  0  0  0  0  0
    2.4840    8.6833   14.7372 O   0  0  0  0  0  0  0  0  0  0  0  0
    3.2713    9.5260   15.5148 C   0  0  0  0  0  3  0  0  0  0  0  0
    2.4678   10.5727   15.9706 O   0  0  0  0  0  0  0  0  0  0  0  0
    3.2364   11.5130   16.6227 C   0  0  0  0  0  0  0  0  0  0  0  0
    2.9644   12.7770   16.1429 O   0  0  0  0  0  0  0  0  0  0  0  0
    3.9689   13.6731   16.4953 C   0  0  0  0  0  3  0  0  0  0  0  0
    4.8089   14.1179   15.3416 C   0  0  0  0  0  3  0  0  0  0  0  0
    4.0027   14.8728   14.3064 C   0  0  1  0  0  0  0  0  0  0  0  0
    4.6345   16.0748   13.9661 O   0  0  0  0  0  0  0  0  0  0  0  0
  2  1  1  1
  2  3  1  0
  3  4  1  0
  4  5  1  6
  4  6  1  0
  6  7  1  1
  6  8  1  0
  8  9  1  1
  9 10  1  0
 10 11  1  1
 11 12  1  0
 12 13  1  0
 13 14  1  0
 14 15  1  0
  8 16  1  0
 16 17  1  6
 16 18  1  0
 18 19  1  1
 18 20  1  0
 20 21  1  1
 20 22  1  0
 22 23  1  0
 23 24  1  0
 24 25  1  0
 25 26  1  0
 26 27  1  0
 27 28  1  0
 28 29  1  0
 29 30  1  0
 30 31  1  0
 31 32  1  0
 32 33  1  0
 33 34  1  0
 34 35  1  6
 10  2  1  0
 34  7  1  0
M  RAD  8  12   2  14   3  22   2  24   2  26   2  28   2  32   2  33   2
M  END
>  <docking_score>  (1) 
-1.861

$$$$

     RDKit          3D

 35 36  0  0  0  0  0  0  0  0999 V2000
    6.0679   12.6573   13.0063 C   0  0  0  0  0  0  0  0  0  0  0  0
    7.1456   12.9592   11.9885 C   0  0  1  0  0  0  0  0  0  0  0  0
    7.0673   12.0058   10.8155 C   0  0  0  0  0  0  0  0  0  0  0  0
    5.6397   11.5765   10.6523 C   0  0  2  0  0  0  0  0  0  0  0  0
    5.3825   11.0922    9.3534 O   0  0  0  0  0  0  0  0  0  0  0  0
    4.6411   12.5750   11.1068 C   0  0  2  0  0  0  0  0  0  0  0  0
    3.3680   12.1134   10.7821 O   0  0  0  0  0  0  0  0  0  0  0  0
    4.8015   13.9458   10.5765 C   0  0  1  0  0  0  0  0  0  0  0  0
    6.1031   14.3174   10.3034 O   0  0  0  0  0  0  0  0  0  0  0  0
    6.9076   14.3468   11.4339 C   0  0  1  0  0  0  0  0  0  0  0  0
    6.4096   15.1837   12.4735 N   0  0  0  0  0  0  0  0  0  0  0  0
    7.4713   16.0726   12.8974 C   0  0  0  0  0  3  0  0  0  0  0  0
    8.5699   15.3134   13.5978 C   0  0  0  0  0  0  0  0  0  0  0  0
    8.9716   15.9073   14.9213 C   0  0  0  0  0  2  0  0  0  0  0  0
    8.5174   15.0701   15.9658 O   0  0  0  0  0  0  0  0  0  0  0  0
    3.9802   14.1050    9.3211 C   0  0  1  0  0  0  0  0  0  0  0  0
    3.2736   15.2904    9.2694 O   0  0  0  0  0  0  0  0  0  0  0  0
    4.7670   13.8108    8.0875 C   0  0  1  0  0  0  0  0  0  0  0  0
    4.1200   12.9498    7.2186 O   0  0  0  0  0  0  0  0  0  0  0  0
    5.0900   15.0816    7.3352 C   0  0  2  0  0  0  0  0  0  0  0  0
    3.9742   15.8739    7.1646 O   0  0  0  0  0  0  0  0  0  0  0  0
    5.6666   14.7811    5.9701 C   0  0  0  0  0  3  0  0  0  0  0  0
    6.1768   13.3591    5.8732 C   0  0  0  0  0  0  0  0  0  0  0  0
    6.2422   12.9041    4.4372 C   0  0  0  0  0  3  0  0  0  0  0  0
    5.4721   11.7434    4.3043 O   0  0  0  0  0  0  0  0  0  0  0  0
    5.7504   10.8482    5.3291 C   0  0  0  0  0  3  0  0  0  0  0  0
    4.6728    9.9616    5.4758 O   0  0  0  0  0  0  0  0  0  0  0  0
    4.8565    9.2409    6.6511 C   0  0  0  0  0  3  0  0  0  0  0  0
    3.5992    8.9575    7.1876 O   0  0  0  0  0  0  0  0  0  0  0  0
    3.7325    8.3736    8.4291 C   0  0  0  0  0  0  0  0  0  0  0  0
    2.9304    9.0113    9.3521 O   0  0  0  0  0  0  0  0  0  0  0  0
    3.3221    8.7054   10.6518 C   0  0  0  0  0  3  0  0  0  0  0  0
    3.9565    9.8506   11.3732 C   0  0  0  0  0  3  0  0  0  0  0  0
    3.0021   11.0122   11.5509 C   0  0  1  0  0  0  0  0  0  0  0  0
    2.9970   11.4506   12.8804 O   0  0  0  0  0  0  0  0  0  0  0  0
  2  1  1  1
  2  3  1  0
  3  4  1  0
  4  5  1  6
  4  6  1  0
  6  7  1  6
  6  8  1  0
  8  9  1  6
  9 10  1  0
 10 11  1  1
 11 12  1  0
 12 13  1  0
 13 14  1  0
 14 15  1  0
  8 16  1  0
 16 17  1  6
 16 18  1  0
 18 19  1  6
 18 20  1  0
 20 21  1  6
 20 22  1  0
 22 23  1  0
 23 24  1  0
 24 25  1  0
 25 26  1  0
 26 27  1  0
 27 28  1  0
 28 29  1  0
 29 30  1  0
 30 31  1  0
 31 32  1  0
 32 33  1  0
 33 34  1  0
 34 35  1  1
 10  2  1  0
 34  7  1  0
M  RAD  8  12   2  14   3  22   2  24   2  26   2  28   2  32   2  33   2
M  END
>  <docking_score>  (2) 
-1.419

$$$$

     RDKit          3D

 35 36  0  0  0  0  0  0  0  0999 V2000
   14.5148   -5.0950   -4.6720 C   0  0  0  0  0  0  0  0  0  0  0  0
   14.6317   -4.2960   -5.9513 C   0  0  1  0  0  0  0  0  0  0  0  0
   15.4528   -3.0428   -5.7358 C   0  0  0  0  0  0  0  0  0  0  0  0
   16.4389   -3.3092   -4.6378 C   0  0  2  0  0  0  0  0  0  0  0  0
   17.5279   -2.4147   -4.6821 O   0  0  0  0  0  0  0  0  0  0  0  0
   16.8582   -4.7271   -4.5179 C   0  0  2  0  0  0  0  0  0  0  0  0
   17.8636   -4.8161   -3.5584 O   0  0  0  0  0  0  0  0  0  0  0  0
   17.3259   -5.3763   -5.7611 C   0  0  1  0  0  0  0  0  0  0  0  0
   16.7440   -4.9041   -6.9209 O   0  0  0  0  0  0  0  0  0  0  0  0
   15.3755   -5.1295   -6.9720 C   0  0  1  0  0  0  0  0  0  0  0  0
   15.0106   -6.4970   -6.8102 N   0  0  0  0  0  0  0  0  0  0  0  0
   16.2103   -7.3049   -6.8810 C   0  0  0  0  0  3  0  0  0  0  0  0
   16.2162   -8.3661   -5.8097 C   0  0  0  0  0  0  0  0  0  0  0  0
   17.2341   -9.4518   -6.0343 C   0  0  0  0  0  2  0  0  0  0  0  0
   16.6119  -10.7126   -5.8888 O   0  0  0  0  0  0  0  0  0  0  0  0
   18.8230   -5.2318   -5.8784 C   0  0  1  0  0  0  0  0  0  0  0  0
   19.4614   -6.3919   -6.2703 O   0  0  0  0  0  0  0  0  0  0  0  0
   19.2164   -4.0252   -6.6637 C   0  0  1  0  0  0  0  0  0  0  0  0
   20.1833   -3.2573   -6.0389 O   0  0  0  0  0  0  0  0  0  0  0  0
   19.7358   -4.4135   -8.0294 C   0  0  2  0  0  0  0  0  0  0  0  0
   20.6782   -5.4174   -7.9529 O   0  0  0  0  0  0  0  0  0  0  0  0
   20.3628   -3.2326   -8.7355 C   0  0  0  0  0  3  0  0  0  0  0  0
   19.9337   -1.9160   -8.1237 C   0  0  0  0  0  0  0  0  0  0  0  0
   20.9232   -0.8235   -8.4411 C   0  0  0  0  0  3  0  0  0  0  0  0
   21.3746   -0.2707   -7.2376 O   0  0  0  0  0  0  0  0  0  0  0  0
   20.3097   -0.0154   -6.3834 C   0  0  0  0  0  3  0  0  0  0  0  0
   20.7803    0.0539   -5.0633 O   0  0  0  0  0  0  0  0  0  0  0  0
   19.6836    0.0622   -4.2080 C   0  0  0  0  0  3  0  0  0  0  0  0
   20.0486   -0.5879   -3.0277 O   0  0  0  0  0  0  0  0  0  0  0  0
   18.9509   -0.7359   -2.2073 C   0  0  0  0  0  0  0  0  0  0  0  0
   18.8448   -2.0403   -1.7720 O   0  0  0  0  0  0  0  0  0  0  0  0
   17.5716   -2.3000   -1.2743 C   0  0  0  0  0  3  0  0  0  0  0  0
   16.7596   -3.2046   -2.1443 C   0  0  0  0  0  3  0  0  0  0  0  0
   17.3802   -4.5791   -2.2747 C   0  0  1  0  0  0  0  0  0  0  0  0
   16.4307   -5.5773   -2.0263 O   0  0  0  0  0  0  0  0  0  0  0  0
  2  1  1  1
  2  3  1  0
  3  4  1  0
  4  5  1  6
  4  6  1  0
  6  7  1  1
  6  8  1  0
  8  9  1  6
  9 10  1  0
 10 11  1  1
 11 12  1  0
 12 13  1  0
 13 14  1  0
 14 15  1  0
  8 16  1  0
 16 17  1  6
 16 18  1  0
 18 19  1  1
 18 20  1  0
 20 21  1  1
 20 22  1  0
 22 23  1  0
 23 24  1  0
 24 25  1  0
 25 26  1  0
 26 27  1  0
 27 28  1  0
 28 29  1  0
 29 30  1  0
 30 31  1  0
 31 32  1  0
 32 33  1  0
 33 34  1  0
 34 35  1  6
 10  2  1  0
 34  7  1  0
M  RAD  8  12   2  14   3  22   2  24   2  26   2  28   2  32   2  33   2
M  END
>  <docking_score>  (3) 
-1.2130000000000001

$$$$
