
     RDKit          3D

 25 25  0  0  0  0  0  0  0  0999 V2000
   19.8903   -3.9726   -4.4382 C   0  0  0  0  0  0  0  0  0  0  0  0
   18.4136   -3.8179   -4.1196 C   0  0  1  0  0  0  0  0  0  0  0  0
   18.1752   -4.2625   -2.7005 C   0  0  0  0  0  0  0  0  0  0  0  0
   18.0957   -3.0202   -1.8373 C   0  0  2  0  0  0  0  0  0  0  0  0
   16.8622   -2.4201   -2.1003 O   0  0  0  0  0  0  0  0  0  0  0  0
   19.2197   -2.1026   -2.2772 C   0  0  2  0  0  0  0  0  0  0  0  0
   19.6033   -1.2311   -1.2608 O   0  0  0  0  0  0  0  0  0  0  0  0
   18.7577   -1.3988   -3.5184 C   0  0  1  0  0  0  0  0  0  0  0  0
   19.7263   -0.6769   -4.1700 O   0  0  0  0  0  0  0  0  0  0  0  0
   18.0343   -2.3961   -4.3879 C   0  0  1  0  0  0  0  0  0  0  0  0
   18.2813   -2.1278   -5.7931 N   0  0  0  0  0  0  0  0  0  0  0  0
   17.0234   -2.2884   -6.5215 C   0  0  0  0  0  3  0  0  0  0  0  0
   15.9721   -1.4981   -5.7557 C   0  0  0  0  0  0  0  0  0  0  0  0
   14.7557   -2.1641   -6.0072 O   0  0  0  0  0  0  0  0  0  0  0  0
   14.6466   -3.1952   -5.0861 C   0  0  0  0  0  0  0  0  0  0  0  0
   13.5484   -4.0003   -5.4627 O   0  0  0  0  0  0  0  0  0  0  0  0
   14.0807   -5.1849   -6.0137 C   0  0  0  0  0  0  0  0  0  0  0  0
   15.3802   -5.3504   -5.5514 O   0  0  0  0  0  0  0  0  0  0  0  0
   16.0195   -6.1711   -6.3626 O   0  0  0  0  0  0  0  0  0  0  0  0
   17.0341   -6.8220   -5.7039 C   0  0  1  0  0  0  0  0  0  0  0  0
   16.5869   -8.0951   -5.3442 O   0  0  0  0  0  0  0  0  0  0  0  0
   18.2528   -7.0101   -6.6201 C   0  0  2  0  0  0  0  0  0  0  0  0
   19.3704   -7.1732   -5.7630 O   0  0  0  0  0  0  0  0  0  0  0  0
   18.4847   -5.7196   -7.4026 C   0  0  0  0  0  3  0  0  0  0  0  0
   19.3475   -6.0031   -8.4883 O   0  0  0  0  0  0  0  0  0  0  0  0
  2  1  1  1
  2  3  1  0
  3  4  1  0
  4  5  1  6
  4  6  1  0
  6  7  1  1
  6  8  1  0
  8  9  1  6
  8 10  1  0
 10 11  1  6
 11 12  1  0
 12 13  1  0
 13 14  1  0
 14 15  1  0
 15 16  1  0
 16 17  1  0
 17 18  1  0
 18 19  1  0
 19 20  1  0
 20 21  1  6
 20 22  1  0
 22 23  1  1
 22 24  1  0
 24 25  1  0
 10  2  1  0
M  RAD  2  12   2  24   2
M  END
>  <docking_score>  (1) 
-3.2559999999999998

$$$$

     RDKit          3D

 25 25  0  0  0  0  0  0  0  0999 V2000
   18.8282   -6.1990   -4.3293 C   0  0  0  0  0  0  0  0  0  0  0  0
   18.6898   -6.1631   -5.8412 C   0  0  1  0  0  0  0  0  0  0  0  0
   19.4325   -7.3369   -6.4235 C   0  0  0  0  0  0  0  0  0  0  0  0
   18.4142   -8.4121   -6.7426 C   0  0  2  0  0  0  0  0  0  0  0  0
   17.7211   -7.9915   -7.8800 O   0  0  0  0  0  0  0  0  0  0  0  0
   17.4672   -8.4897   -5.5611 C   0  0  2  0  0  0  0  0  0  0  0  0
   16.8630   -9.7409   -5.4643 O   0  0  0  0  0  0  0  0  0  0  0  0
   16.4840   -7.3664   -5.7061 C   0  0  1  0  0  0  0  0  0  0  0  0
   15.6736   -7.1613   -4.6176 O   0  0  0  0  0  0  0  0  0  0  0  0
   17.2301   -6.1395   -6.1665 C   0  0  1  0  0  0  0  0  0  0  0  0
   16.6625   -4.9408   -5.5761 N   0  0  0  0  0  0  0  0  0  0  0  0
   15.5781   -4.4711   -6.4375 C   0  0  0  0  0  3  0  0  0  0  0  0
   15.6238   -2.9502   -6.4062 C   0  0  0  0  0  0  0  0  0  0  0  0
   14.6778   -2.5737   -5.4317 O   0  0  0  0  0  0  0  0  0  0  0  0
   15.1368   -1.4103   -4.8323 C   0  0  0  0  0  0  0  0  0  0  0  0
   15.0082   -1.5617   -3.4335 O   0  0  0  0  0  0  0  0  0  0  0  0
   16.0451   -2.4239   -3.0193 C   0  0  0  0  0  0  0  0  0  0  0  0
   17.1673   -1.6631   -2.7165 O   0  0  0  0  0  0  0  0  0  0  0  0
   18.2066   -2.1640   -3.3562 O   0  0  0  0  0  0  0  0  0  0  0  0
   19.3765   -1.5953   -2.9143 C   0  0  1  0  0  0  0  0  0  0  0  0
   19.1080   -0.8707   -1.7512 O   0  0  0  0  0  0  0  0  0  0  0  0
   20.4087   -2.6733   -2.5504 C   0  0  2  0  0  0  0  0  0  0  0  0
   20.7169   -3.3493   -3.7581 O   0  0  0  0  0  0  0  0  0  0  0  0
   19.7482   -3.6975   -1.6306 C   0  0  0  0  0  3  0  0  0  0  0  0
   20.1828   -3.4554   -0.3055 O   0  0  0  0  0  0  0  0  0  0  0  0
  2  1  1  1
  2  3  1  0
  3  4  1  0
  4  5  1  6
  4  6  1  0
  6  7  1  6
  6  8  1  0
  8  9  1  1
  8 10  1  0
 10 11  1  1
 11 12  1  0
 12 13  1  0
 13 14  1  0
 14 15  1  0
 15 16  1  0
 16 17  1  0
 17 18  1  0
 18 19  1  0
 19 20  1  0
 20 21  1  1
 20 22  1  0
 22 23  1  6
 22 24  1  0
 24 25  1  0
 10  2  1  0
M  RAD  2  12   2  24   2
M  END
>  <docking_score>  (2) 
-3.2440000000000002

$$$$

     RDKit          3D

 25 25  0  0  0  0  0  0  0  0999 V2000
   19.8651   -6.0047   -5.4956 C   0  0  0  0  0  0  0  0  0  0  0  0
   19.4822   -6.3502   -6.9239 C   0  0  1  0  0  0  0  0  0  0  0  0
   19.9658   -7.7430   -7.2315 C   0  0  0  0  0  0  0  0  0  0  0  0
   18.7829   -8.6798   -7.0971 C   0  0  2  0  0  0  0  0  0  0  0  0
   17.9676   -8.4684   -8.2114 O   0  0  0  0  0  0  0  0  0  0  0  0
   18.0439   -8.2817   -5.8346 C   0  0  2  0  0  0  0  0  0  0  0  0
   17.3136   -9.3436   -5.3065 O   0  0  0  0  0  0  0  0  0  0  0  0
   17.1976   -7.0905   -6.1728 C   0  0  1  0  0  0  0  0  0  0  0  0
   16.6118   -6.4714   -5.0971 O   0  0  0  0  0  0  0  0  0  0  0  0
   18.0031   -6.1721   -7.0568 C   0  0  1  0  0  0  0  0  0  0  0  0
   17.6953   -4.7825   -6.7707 N   0  0  0  0  0  0  0  0  0  0  0  0
   16.9617   -4.2287   -7.9081 C   0  0  0  0  0  3  0  0  0  0  0  0
   15.7342   -3.5326   -7.3382 C   0  0  0  0  0  0  0  0  0  0  0  0
   16.1041   -2.1784   -7.2129 O   0  0  0  0  0  0  0  0  0  0  0  0
   15.0171   -1.4960   -6.6873 C   0  0  0  0  0  0  0  0  0  0  0  0
   14.6387   -2.1388   -5.4874 O   0  0  0  0  0  0  0  0  0  0  0  0
   14.4270   -1.1244   -4.5302 C   0  0  0  0  0  0  0  0  0  0  0  0
   15.0365   -1.4973   -3.3389 O   0  0  0  0  0  0  0  0  0  0  0  0
   15.9857   -2.3747   -3.6025 O   0  0  0  0  0  0  0  0  0  0  0  0
   17.1947   -1.9562   -3.1021 C   0  0  1  0  0  0  0  0  0  0  0  0
   17.0054   -1.5157   -1.7905 O   0  0  0  0  0  0  0  0  0  0  0  0
   18.2002   -3.1165   -3.0516 C   0  0  2  0  0  0  0  0  0  0  0  0
   18.6506   -3.1911   -1.7093 O   0  0  0  0  0  0  0  0  0  0  0  0
   19.4150   -2.7532   -3.9024 C   0  0  0  0  0  3  0  0  0  0  0  0
   19.5016   -1.3425   -3.9801 O   0  0  0  0  0  0  0  0  0  0  0  0
  2  1  1  1
  2  3  1  0
  3  4  1  0
  4  5  1  6
  4  6  1  0
  6  7  1  6
  6  8  1  0
  8  9  1  1
  8 10  1  0
 10 11  1  1
 11 12  1  0
 12 13  1  0
 13 14  1  0
 14 15  1  0
 15 16  1  0
 16 17  1  0
 17 18  1  0
 18 19  1  0
 19 20  1  0
 20 21  1  1
 20 22  1  0
 22 23  1  1
 22 24  1  0
 24 25  1  0
 10  2  1  0
M  RAD  2  12   2  24   2
M  END
>  <docking_score>  (3) 
-2.9199999999999999

$$$$
