
     RDKit          3D

 33 34  0  0  0  0  0  0  0  0999 V2000
   19.9958   -0.9533   -1.5057 C   0  0  0  0  0  0  0  0  0  0  0  0
   18.8381   -1.7054   -2.0751 C   0  0  0  0  0  0  0  0  0  0  0  0
   17.8366   -1.0161   -2.5305 N   0  0  0  0  0  0  0  0  0  0  0  0
   16.7003   -1.6417   -3.0861 C   0  0  0  0  0  0  0  0  0  0  0  0
   15.7565   -2.0307   -2.3712 O   0  0  0  0  0  0  0  0  0  0  0  0
   16.6286   -1.8364   -4.5162 C   0  0  0  0  0  0  0  0  0  0  0  0
   17.8035   -1.6621   -5.1426 C   0  0  0  0  0  0  0  0  0  0  0  0
   18.2474   -1.7401   -6.5264 C   0  0  0  0  0  0  0  0  0  0  0  0
   19.6885   -1.4255   -6.6657 C   0  0  0  0  0  0  0  0  0  0  0  0
   20.3095   -2.4760   -7.4176 N   0  0  0  0  0  0  0  0  0  0  0  0
   20.8473   -2.2079   -8.7196 C   0  0  0  0  0  0  0  0  0  0  0  0
   20.3885   -3.7693   -6.8712 C   0  0  0  0  0  0  0  0  0  0  0  0
   19.7923   -4.8077   -7.4157 C   0  0  0  0  0  0  0  0  0  0  0  0
   18.9992   -5.4344   -8.3897 C   0  0  0  0  0  0  0  0  0  0  0  0
   19.5035   -6.2335   -7.3714 C   0  0  0  0  0  0  0  0  0  0  0  0
   19.5775   -7.5663   -6.8172 C   0  0  0  0  0  0  0  0  0  0  0  0
   20.6525   -7.9260   -6.2730 O   0  0  0  0  0  0  0  0  0  0  0  0
   18.4841   -8.4514   -6.8759 N   0  0  0  0  0  0  0  0  0  0  0  0
   18.5179   -9.7789   -6.3370 C   0  0  1  0  0  0  0  0  0  0  0  0
   18.6032   -9.6755   -4.8257 C   0  0  0  0  0  0  0  0  0  0  0  0
   18.2266   -8.2630   -4.4431 C   0  0  0  0  0  0  0  0  0  0  0  0
   18.8981   -7.9371   -3.1251 C   0  0  0  0  0  0  0  0  0  0  0  0
   20.1792   -8.7415   -3.0620 C   0  0  0  0  0  0  0  0  0  0  0  0
   21.2530   -7.9144   -2.4598 C   0  0  0  0  0  0  0  0  0  0  0  0
   21.3455   -6.7218   -2.6946 O   0  0  0  0  0  0  0  0  0  0  0  0
   17.3524  -10.5535   -6.7732 C   0  0  0  0  0  0  0  0  0  0  0  0
   16.2955  -10.4436   -6.1903 O   0  0  0  0  0  0  0  0  0  0  0  0
   17.4671  -11.6646   -8.1608 S   0  0  0  0  0  0  0  0  0  0  0  0
   17.6660   -2.0181   -7.6302 C   0  0  0  0  0  0  0  0  0  0  0  0
   16.6809   -2.8424   -7.7860 C   0  0  0  0  0  0  0  0  0  0  0  0
   15.3339   -2.7584   -7.2910 N   0  0  0  0  0  0  0  0  0  0  0  0
   14.7987   -2.9247   -6.0408 N   0  0  0  0  0  0  0  0  0  0  0  0
   15.3489   -2.1749   -5.0293 N   0  0  0  0  0  0  0  0  0  0  0  0
  1  2  1  0
  2  3  2  3
  3  4  1  0
  4  5  2  0
  4  6  1  0
  6  7  2  3
  7  8  1  0
  8  9  1  0
  9 10  1  0
 10 11  1  0
 10 12  1  0
 12 13  2  3
 13 14  1  0
 14 15  2  0
 15 16  1  0
 16 17  2  0
 16 18  1  0
 18 19  1  0
 19 20  1  1
 20 21  1  0
 21 22  1  0
 22 23  1  0
 23 24  1  0
 24 25  2  0
 19 26  1  0
 26 27  2  0
 26 28  1  0
  8 29  2  0
 29 30  2  0
 30 31  1  0
 31 32  1  0
 32 33  1  0
 33  6  1  0
 15 13  1  0
M  END
>  <docking_score>  (1) 
0.5

$$$$

     RDKit          3D

 33 34  0  0  0  0  0  0  0  0999 V2000
    2.5832   11.4559    2.0362 C   0  0  0  0  0  0  0  0  0  0  0  0
    3.1584   12.5006    2.9352 C   0  0  0  0  0  0  0  0  0  0  0  0
    3.9792   12.1121    3.8630 N   0  0  0  0  0  0  0  0  0  0  0  0
    4.5708   13.0289    4.7579 C   0  0  0  0  0  0  0  0  0  0  0  0
    5.0777   14.0947    4.3575 O   0  0  0  0  0  0  0  0  0  0  0  0
    4.5899   12.7259    6.1707 C   0  0  0  0  0  0  0  0  0  0  0  0
    4.9908   13.7538    6.9362 C   0  0  0  0  0  0  0  0  0  0  0  0
    5.1762   13.9544    8.3657 C   0  0  0  0  0  0  0  0  0  0  0  0
    5.6709   15.3161    8.6755 C   0  0  0  0  0  0  0  0  0  0  0  0
    5.8466   15.4209   10.0943 N   0  0  0  0  0  0  0  0  0  0  0  0
    4.8486   16.0656   10.8972 C   0  0  0  0  0  0  0  0  0  0  0  0
    7.0019   14.8879   10.6932 C   0  0  0  0  0  0  0  0  0  0  0  0
    7.0308   14.4839   11.9446 C   0  0  0  0  0  0  0  0  0  0  0  0
    6.4585   14.2559   13.2059 C   0  0  0  0  0  0  0  0  0  0  0  0
    7.7942   13.9108   13.0433 C   0  0  0  0  0  0  0  0  0  0  0  0
    8.9766   13.3627   13.6684 C   0  0  0  0  0  0  0  0  0  0  0  0
    8.9985   12.1319   13.9245 O   0  0  0  0  0  0  0  0  0  0  0  0
   10.0838   14.1714   13.9886 N   0  0  0  0  0  0  0  0  0  0  0  0
   11.2737   13.6655   14.6068 C   0  0  1  0  0  0  0  0  0  0  0  0
   11.6155   12.3357   13.9610 C   0  0  0  0  0  0  0  0  0  0  0  0
   12.0600   12.6174   12.5446 C   0  0  0  0  0  0  0  0  0  0  0  0
   12.8459   11.4204   12.0507 C   0  0  0  0  0  0  0  0  0  0  0  0
   12.3979   11.1427   10.6314 C   0  0  0  0  0  0  0  0  0  0  0  0
   11.0453   10.5345   10.6501 C   0  0  0  0  0  0  0  0  0  0  0  0
   10.8911    9.3257   10.6826 O   0  0  0  0  0  0  0  0  0  0  0  0
   12.3723   14.6301   14.5009 C   0  0  0  0  0  0  0  0  0  0  0  0
   13.4008   14.4514   15.1168 O   0  0  0  0  0  0  0  0  0  0  0  0
   12.2173   16.0749   13.4707 S   0  0  0  0  0  0  0  0  0  0  0  0
    5.0055   13.2156    9.3946 C   0  0  0  0  0  0  0  0  0  0  0  0
    4.1077   12.2939    9.5304 C   0  0  0  0  0  0  0  0  0  0  0  0
    3.9608   11.0518    8.8217 N   0  0  0  0  0  0  0  0  0  0  0  0
    3.5455   10.7596    7.5492 N   0  0  0  0  0  0  0  0  0  0  0  0
    4.1899   11.4106    6.5250 N   0  0  0  0  0  0  0  0  0  0  0  0
  1  2  1  0
  2  3  2  3
  3  4  1  0
  4  5  2  0
  4  6  1  0
  6  7  2  3
  7  8  1  0
  8  9  1  0
  9 10  1  0
 10 11  1  0
 10 12  1  0
 12 13  2  3
 13 14  1  0
 14 15  2  0
 15 16  1  0
 16 17  2  0
 16 18  1  0
 18 19  1  0
 19 20  1  6
 20 21  1  0
 21 22  1  0
 22 23  1  0
 23 24  1  0
 24 25  2  0
 19 26  1  0
 26 27  2  0
 26 28  1  0
  8 29  2  0
 29 30  2  0
 30 31  1  0
 31 32  1  0
 32 33  1  0
 33  6  1  0
 15 13  1  0
M  END
>  <docking_score>  (2) 
0.87

$$$$
