
     RDKit          3D

 21 20  0  0  0  0  0  0  0  0999 V2000
   19.6858   -8.2110   -3.9221 C   0  0  0  0  0  0  0  0  0  0  0  0
   19.9680   -7.2169   -5.0186 C   0  0  0  0  0  0  0  0  0  0  0  0
   19.5711   -5.8245   -4.5296 C   0  0  0  0  0  0  0  0  0  0  0  0
   18.4407   -5.2697   -5.3638 C   0  0  0  0  0  0  0  0  0  0  0  0
   19.0038   -4.2746   -6.3731 C   0  0  0  0  0  0  0  0  0  0  0  0
   17.9628   -4.0191   -7.4518 C   0  0  0  0  0  0  0  0  0  0  0  0
   17.9030   -2.5315   -7.6761 C   0  0  0  0  0  0  0  0  0  0  0  0
   18.1320   -1.7480   -6.4138 C   0  0  0  0  0  0  0  0  0  0  0  0
   16.9060   -0.9571   -6.0430 C   0  0  0  0  0  0  0  0  0  0  0  0
   15.7000   -1.8784   -5.8320 C   0  0  0  0  0  0  0  0  0  0  0  0
   15.9221   -2.7221   -4.6213 C   0  0  1  0  0  0  0  0  0  0  0  0
   15.7100   -1.8630   -3.3926 C   0  0  0  0  0  0  0  0  0  0  0  0
   16.6125   -2.4213   -2.3013 C   0  0  0  0  0  0  0  0  0  0  0  0
   17.9900   -2.7274   -2.8113 C   0  0  0  0  0  0  0  0  0  0  0  0
   19.0171   -2.2961   -1.8093 C   0  0  0  0  0  0  0  0  0  0  0  0
   19.6191   -0.9733   -2.1608 C   0  0  0  0  0  0  0  0  0  0  0  0
   19.5296   -0.5654   -3.3125 O   0  0  0  0  0  0  0  0  0  0  0  0
   15.0237   -3.9060   -4.5200 C   0  0  0  0  0  0  0  0  0  0  0  0
   14.1817   -4.1160   -5.7591 C   0  0  0  0  0  0  0  0  0  0  0  0
   14.2342   -5.5518   -6.1219 C   0  0  0  0  0  0  0  0  0  0  0  0
   15.2639   -6.1163   -6.4606 O   0  0  0  0  0  0  0  0  0  0  0  0
  1  2  1  0
  2  3  1  0
  3  4  1  0
  4  5  1  0
  5  6  1  0
  6  7  1  0
  7  8  1  0
  8  9  1  0
  9 10  1  0
 11 10  1  6
 11 12  1  0
 12 13  1  0
 13 14  1  0
 14 15  1  0
 15 16  1  0
 16 17  2  0
 11 18  1  0
 18 19  1  0
 19 20  1  0
 20 21  2  0
M  END
>  <docking_score>  (1) 
-2.8839999999999999

$$$$

     RDKit          3D

 21 20  0  0  0  0  0  0  0  0999 V2000
   16.3936   -4.9028   -7.5626 C   0  0  0  0  0  0  0  0  0  0  0  0
   17.8985   -4.8834   -7.4896 C   0  0  0  0  0  0  0  0  0  0  0  0
   18.4356   -6.1558   -8.1438 C   0  0  0  0  0  0  0  0  0  0  0  0
   19.8211   -6.4730   -7.6324 C   0  0  0  0  0  0  0  0  0  0  0  0
   19.8968   -6.1362   -6.1469 C   0  0  0  0  0  0  0  0  0  0  0  0
   20.0689   -7.4226   -5.3545 C   0  0  0  0  0  0  0  0  0  0  0  0
   18.7001   -7.8623   -4.9076 C   0  0  0  0  0  0  0  0  0  0  0  0
   17.8720   -6.7241   -4.3802 C   0  0  0  0  0  0  0  0  0  0  0  0
   18.4935   -6.1369   -3.1413 C   0  0  0  0  0  0  0  0  0  0  0  0
   17.6309   -5.0029   -2.5775 C   0  0  0  0  0  0  0  0  0  0  0  0
   17.4106   -3.9711   -3.6330 C   0  0  1  0  0  0  0  0  0  0  0  0
   15.9729   -3.5030   -3.5533 C   0  0  0  0  0  0  0  0  0  0  0  0
   15.9353   -2.0911   -4.1211 C   0  0  0  0  0  0  0  0  0  0  0  0
   15.3801   -2.0591   -5.5146 C   0  0  0  0  0  0  0  0  0  0  0  0
   14.6721   -0.7608   -5.7565 C   0  0  0  0  0  0  0  0  0  0  0  0
   13.6652   -0.4669   -4.6908 C   0  0  0  0  0  0  0  0  0  0  0  0
   13.5028    0.6920   -4.3283 O   0  0  0  0  0  0  0  0  0  0  0  0
   18.2941   -2.7767   -3.5233 C   0  0  0  0  0  0  0  0  0  0  0  0
   18.9276   -2.6343   -2.1571 C   0  0  0  0  0  0  0  0  0  0  0  0
   19.3449   -1.2235   -1.9803 C   0  0  0  0  0  0  0  0  0  0  0  0
   20.0451   -0.8470   -1.0519 O   0  0  0  0  0  0  0  0  0  0  0  0
  1  2  1  0
  2  3  1  0
  3  4  1  0
  4  5  1  0
  5  6  1  0
  6  7  1  0
  7  8  1  0
  8  9  1  0
  9 10  1  0
 11 10  1  1
 11 12  1  0
 12 13  1  0
 13 14  1  0
 14 15  1  0
 15 16  1  0
 16 17  2  0
 11 18  1  0
 18 19  1  0
 19 20  1  0
 20 21  2  0
M  END
>  <docking_score>  (2) 
-2.6859999999999999

$$$$

     RDKit          3D

 21 20  0  0  0  0  0  0  0  0999 V2000
   14.0620   -0.1831   -4.4741 C   0  0  0  0  0  0  0  0  0  0  0  0
   13.8786   -1.6313   -4.8474 C   0  0  0  0  0  0  0  0  0  0  0  0
   15.1152   -2.0983   -5.6144 C   0  0  0  0  0  0  0  0  0  0  0  0
   15.9759   -0.9200   -6.0046 C   0  0  0  0  0  0  0  0  0  0  0  0
   17.4255   -1.3772   -6.1299 C   0  0  0  0  0  0  0  0  0  0  0  0
   17.8974   -1.9050   -4.7841 C   0  0  0  0  0  0  0  0  0  0  0  0
   19.0276   -2.8641   -5.0481 C   0  0  0  0  0  0  0  0  0  0  0  0
   20.2318   -2.5864   -4.1924 C   0  0  0  0  0  0  0  0  0  0  0  0
   20.9180   -3.8672   -3.7993 C   0  0  0  0  0  0  0  0  0  0  0  0
   20.1840   -4.5518   -2.6416 C   0  0  0  0  0  0  0  0  0  0  0  0
   19.9741   -5.9932   -2.9662 C   0  0  1  0  0  0  0  0  0  0  0  0
   18.5277   -6.1883   -3.3695 C   0  0  0  0  0  0  0  0  0  0  0  0
   17.7114   -5.1592   -2.6003 C   0  0  0  0  0  0  0  0  0  0  0  0
   16.2527   -5.2255   -2.9451 C   0  0  0  0  0  0  0  0  0  0  0  0
   16.0789   -5.3137   -4.4308 C   0  0  0  0  0  0  0  0  0  0  0  0
   15.5242   -6.6372   -4.8506 C   0  0  0  0  0  0  0  0  0  0  0  0
   14.4051   -6.9612   -4.4717 O   0  0  0  0  0  0  0  0  0  0  0  0
   20.8359   -6.5108   -4.0655 C   0  0  0  0  0  0  0  0  0  0  0  0
   20.1041   -7.4527   -4.9959 C   0  0  0  0  0  0  0  0  0  0  0  0
   20.7986   -7.4496   -6.3050 C   0  0  0  0  0  0  0  0  0  0  0  0
   20.8710   -6.4600   -7.0186 O   0  0  0  0  0  0  0  0  0  0  0  0
  1  2  1  0
  2  3  1  0
  3  4  1  0
  4  5  1  0
  5  6  1  0
  6  7  1  0
  7  8  1  0
  8  9  1  0
  9 10  1  0
 11 10  1  6
 11 12  1  0
 12 13  1  0
 13 14  1  0
 14 15  1  0
 15 16  1  0
 16 17  2  0
 11 18  1  0
 18 19  1  0
 19 20  1  0
 20 21  2  0
M  END
>  <docking_score>  (3) 
-2.5990000000000002

$$$$
