
     RDKit          3D

 31 34  0  0  0  0  0  0  0  0999 V2000
    3.8974    8.9248    6.6213 C   0  0  0  0  0  0  0  0  0  0  0  0
    3.2248    7.8443    7.4151 C   0  0  0  0  0  2  0  0  0  0  0  0
    2.5525    7.9718   10.1800 C   0  0  0  0  0  0  0  0  0  0  0  0
    2.2846    8.2369   11.6319 C   0  0  0  0  0  0  0  0  0  0  0  0
    2.3621    9.1465   12.8222 C   0  0  0  0  0  0  0  0  0  0  0  0
    2.7643   10.4566   13.4319 N   0  0  0  0  0  0  0  0  0  0  0  0
    3.3833   11.8163   13.2978 C   0  0  0  0  0  0  0  0  0  0  0  0
    4.0534   12.8612   12.4557 C   0  0  0  0  0  0  0  0  0  0  0  0
    4.5948   13.3114   11.1313 C   0  0  0  0  0  0  0  0  0  0  0  0
    4.8628   13.0462    9.6794 C   0  0  0  0  0  0  0  0  0  0  0  0
    4.7852   12.1367    8.4892 C   0  0  0  0  0  0  0  0  0  0  0  0
    5.4509   13.1374    7.5916 C   0  0  0  0  0  0  0  0  0  0  0  0
    6.0146   13.6619    6.3043 C   0  0  0  0  0  0  0  0  0  0  0  0
    6.4941   15.0251    6.7063 C   0  0  0  0  0  0  0  0  0  0  0  0
    6.3231   15.4932    8.1211 C   0  0  0  0  0  0  0  0  0  0  0  0
    4.3831   10.8266    7.8794 S   0  0  0  0  0  0  0  0  0  0  0  0
    3.7641    9.4668    8.0135 C   0  0  0  0  0  0  0  0  0  0  0  0
    3.0940    8.4219    8.8557 C   0  0  0  0  0  0  0  0  0  0  0  0
    2.8133    7.2340    7.9838 C   0  0  0  0  0  0  0  0  0  0  0  0
    3.3097    7.5447    6.6029 C   0  0  0  0  0  0  0  0  0  0  0  0
    3.4960    7.0535    5.0925 C   0  0  0  0  0  0  0  0  0  0  0  0
    3.9703    7.3000    3.6911 O   0  0  0  0  0  0  0  0  0  0  0  0
    4.5987    8.0796    2.5742 C   0  0  0  0  0  0  0  0  0  0  0  0
    5.2725    9.2575    1.9351 S   0  0  0  0  0  0  0  0  0  0  0  0
    5.8752   10.6302    1.8844 C   0  0  0  0  0  0  0  0  0  0  0  0
    6.3025   11.9602    2.4307 C   0  0  0  0  0  0  0  0  0  0  0  0
    6.4806   13.0176    3.4797 C   0  0  0  0  0  0  0  0  0  0  0  0
    6.3788   13.6195    4.8498 S   0  0  0  0  0  0  0  0  0  0  0  0
    7.0098   14.9651    4.6470 C   0  0  0  0  0  0  0  0  0  0  0  0
    7.5317   15.3528    3.2952 O   0  0  0  0  0  0  0  0  0  0  0  0
    8.8409   16.0750    3.1755 C   0  0  0  0  0  0  0  0  0  0  0  0
  1  2  1  0
  2  3  1  0
  3  4  1  0
  4  5  1  0
  5  6  2  3
  6  7  1  0
  7  8  1  0
  8  9  2  3
  9 10  1  0
 10 11  2  3
 11 12  1  0
 12 13  1  0
 13 14  2  3
 14 15  1  0
 11 16  1  0
 16 17  1  0
 17 18  1  0
 18 19  1  0
 19 20  1  0
 20 21  1  0
 21 22  1  0
 22 23  1  0
 23 24  1  0
 24 25  2  3
 25 26  1  0
 26 27  2  3
 27 28  1  0
 28 29  2  3
 29 30  1  0
 30 31  1  0
  1 17  2  0
 20  1  1  0
 18  3  1  0
 28 13  1  0
M  RAD  1   2   3
M  END
>  <docking_score>  (1) 
-4.5359999999999996

$$$$

     RDKit          3D

 31 34  0  0  0  0  0  0  0  0999 V2000
    6.0824   13.4566   11.2127 C   0  0  0  0  0  0  0  0  0  0  0  0
    6.1433   13.8122   12.6686 C   0  0  0  0  0  2  0  0  0  0  0  0
    4.9584   12.3418   14.8009 C   0  0  0  0  0  0  0  0  0  0  0  0
    4.2650   11.4316   15.7709 C   0  0  0  0  0  0  0  0  0  0  0  0
    3.4480   10.2035   16.0433 C   0  0  0  0  0  0  0  0  0  0  0  0
    2.7264    8.9865   15.5452 N   0  0  0  0  0  0  0  0  0  0  0  0
    2.2933    8.1067   14.4101 C   0  0  0  0  0  0  0  0  0  0  0  0
    2.2651    7.8000   12.9420 C   0  0  0  0  0  0  0  0  0  0  0  0
    2.6491    8.1483   11.5346 C   0  0  0  0  0  0  0  0  0  0  0  0
    3.3425    9.0585   10.5646 C   0  0  0  0  0  0  0  0  0  0  0  0
    4.1595   10.2866   10.2922 C   0  0  0  0  0  0  0  0  0  0  0  0
    4.1699   10.0383    8.8129 C   0  0  0  0  0  0  0  0  0  0  0  0
    4.5120   10.3164    7.3791 C   0  0  0  0  0  0  0  0  0  0  0  0
    3.8568    9.1663    6.6735 C   0  0  0  0  0  0  0  0  0  0  0  0
    3.1058    8.1333    7.4603 C   0  0  0  0  0  0  0  0  0  0  0  0
    4.8811   11.5036   10.7903 S   0  0  0  0  0  0  0  0  0  0  0  0
    5.3142   12.3834   11.9254 C   0  0  0  0  0  0  0  0  0  0  0  0
    5.3424   12.6901   13.3935 C   0  0  0  0  0  0  0  0  0  0  0  0
    6.1282   13.9530   13.5880 C   0  0  0  0  0  0  0  0  0  0  0  0
    6.5855   14.4267   12.2403 C   0  0  0  0  0  0  0  0  0  0  0  0
    7.3842   15.5235   11.3939 C   0  0  0  0  0  0  0  0  0  0  0  0
    7.8731   16.0522   10.0781 O   0  0  0  0  0  0  0  0  0  0  0  0
    8.0533   16.0675    8.5890 C   0  0  0  0  0  0  0  0  0  0  0  0
    7.8936   15.5666    7.1842 S   0  0  0  0  0  0  0  0  0  0  0  0
    7.4216   14.6362    6.1065 C   0  0  0  0  0  0  0  0  0  0  0  0
    6.7190   13.4371    5.5423 C   0  0  0  0  0  0  0  0  0  0  0  0
    5.9071   12.1766    5.5891 C   0  0  0  0  0  0  0  0  0  0  0  0
    5.1265   11.0728    6.2388 S   0  0  0  0  0  0  0  0  0  0  0  0
    4.7268   10.2371    5.0590 C   0  0  0  0  0  0  0  0  0  0  0  0
    5.1445   10.6427    3.6766 O   0  0  0  0  0  0  0  0  0  0  0  0
    4.8473    9.7476    2.5103 C   0  0  0  0  0  0  0  0  0  0  0  0
  1  2  1  0
  2  3  1  0
  3  4  1  0
  4  5  1  0
  5  6  2  3
  6  7  1  0
  7  8  1  0
  8  9  2  3
  9 10  1  0
 10 11  2  3
 11 12  1  0
 12 13  1  0
 13 14  2  3
 14 15  1  0
 11 16  1  0
 16 17  1  0
 17 18  1  0
 18 19  1  0
 19 20  1  0
 20 21  1  0
 21 22  1  0
 22 23  1  0
 23 24  1  0
 24 25  2  3
 25 26  1  0
 26 27  2  3
 27 28  1  0
 28 29  2  3
 29 30  1  0
 30 31  1  0
  1 17  2  0
 20  1  1  0
 18  3  1  0
 28 13  1  0
M  RAD  1   2   3
M  END
>  <docking_score>  (2) 
-4.3479999999999999

$$$$

     RDKit          3D

 31 34  0  0  0  0  0  0  0  0999 V2000
    4.4837   13.7294    9.3829 C   0  0  0  0  0  0  0  0  0  0  0  0
    4.8058   14.6241   10.5428 C   0  0  0  0  0  2  0  0  0  0  0  0
    4.6483   13.9148   13.2969 C   0  0  0  0  0  0  0  0  0  0  0  0
    4.5004   13.3475   14.6776 C   0  0  0  0  0  0  0  0  0  0  0  0
    4.1515   12.2017   15.5807 C   0  0  0  0  0  0  0  0  0  0  0  0
    3.6951   10.7847   15.7642 N   0  0  0  0  0  0  0  0  0  0  0  0
    3.2536    9.4760   15.1791 C   0  0  0  0  0  0  0  0  0  0  0  0
    2.9451    8.6264   13.9820 C   0  0  0  0  0  0  0  0  0  0  0  0
    2.8525    8.4635   12.4938 C   0  0  0  0  0  0  0  0  0  0  0  0
    3.0004    9.0308   11.1131 C   0  0  0  0  0  0  0  0  0  0  0  0
    3.3493   10.1766   10.2101 C   0  0  0  0  0  0  0  0  0  0  0  0
    3.0577    9.3822    8.9716 C   0  0  0  0  0  0  0  0  0  0  0  0
    2.9391    9.1383    7.4962 C   0  0  0  0  0  0  0  0  0  0  0  0
    2.4739    7.7130    7.4522 C   0  0  0  0  0  0  0  0  0  0  0  0
    2.2608    6.9538    8.7282 C   0  0  0  0  0  0  0  0  0  0  0  0
    3.8056   11.5936   10.0265 S   0  0  0  0  0  0  0  0  0  0  0  0
    4.2472   12.9023   10.6116 C   0  0  0  0  0  0  0  0  0  0  0  0
    4.5556   13.7519   11.8088 C   0  0  0  0  0  0  0  0  0  0  0  0
    4.9827   15.1041   11.3197 C   0  0  0  0  0  0  0  0  0  0  0  0
    4.9383   15.0903    9.8205 C   0  0  0  0  0  0  0  0  0  0  0  0
    5.1630   15.8922    8.4553 C   0  0  0  0  0  0  0  0  0  0  0  0
    5.1406   15.9459    6.9565 O   0  0  0  0  0  0  0  0  0  0  0  0
    4.9309   15.4152    5.5693 C   0  0  0  0  0  0  0  0  0  0  0  0
    4.5702   14.3919    4.5336 S   0  0  0  0  0  0  0  0  0  0  0  0
    4.1209   13.0529    4.0285 C   0  0  0  0  0  0  0  0  0  0  0  0
    3.6607   11.6297    4.1413 C   0  0  0  0  0  0  0  0  0  0  0  0
    3.2690   10.3684    4.8526 C   0  0  0  0  0  0  0  0  0  0  0  0
    3.0138    9.4872    6.0393 S   0  0  0  0  0  0  0  0  0  0  0  0
    2.5798    8.2069    5.3894 C   0  0  0  0  0  0  0  0  0  0  0  0
    2.5088    8.1112    3.8941 O   0  0  0  0  0  0  0  0  0  0  0  0
    3.0054    6.8795    3.1969 C   0  0  0  0  0  0  0  0  0  0  0  0
  1  2  1  0
  2  3  1  0
  3  4  1  0
  4  5  1  0
  5  6  2  3
  6  7  1  0
  7  8  1  0
  8  9  2  3
  9 10  1  0
 10 11  2  3
 11 12  1  0
 12 13  1  0
 13 14  2  3
 14 15  1  0
 11 16  1  0
 16 17  1  0
 17 18  1  0
 18 19  1  0
 19 20  1  0
 20 21  1  0
 21 22  1  0
 22 23  1  0
 23 24  1  0
 24 25  2  3
 25 26  1  0
 26 27  2  3
 27 28  1  0
 28 29  2  3
 29 30  1  0
 30 31  1  0
  1 17  2  0
 20  1  1  0
 18  3  1  0
 28 13  1  0
M  RAD  1   2   3
M  END
>  <docking_score>  (3) 
-3.1920000000000002

$$$$
