
     RDKit          3D

 21 20  0  0  0  0  0  0  0  0999 V2000
   14.1137   -3.8509   -5.5562 C   0  0  0  0  0  0  0  0  0  0  0  0
   15.0368   -2.6658   -5.4391 C   0  0  0  0  0  0  0  0  0  0  0  0
   14.4680   -1.5524   -4.6077 C   0  0  0  0  0  0  0  0  0  0  0  0
   15.3828   -2.1767   -6.8101 C   0  0  0  0  0  0  0  0  0  0  0  0
   16.8529   -2.1268   -7.0619 C   0  0  0  0  0  0  0  0  0  0  0  0
   17.2606   -3.3052   -7.9374 C   0  0  0  0  0  0  0  0  0  0  0  0
   18.7482   -3.2472   -8.2413 C   0  0  1  0  0  0  0  0  0  0  0  0
   19.3419   -1.9039   -7.8982 C   0  0  0  0  0  0  0  0  0  0  0  0
   19.4250   -4.3147   -7.4313 C   0  0  0  0  0  3  0  0  0  0  0  0
   18.4593   -5.4483   -7.1427 C   0  0  0  0  0  0  0  0  0  0  0  0
   18.7723   -5.9637   -5.7664 C   0  0  0  0  0  3  0  0  0  0  0  0
   17.4772   -6.4082   -5.1281 C   0  0  2  0  0  0  0  0  0  0  0  0
   16.3542   -6.4677   -6.1372 C   0  0  0  0  0  0  0  0  0  0  0  0
   17.0752   -5.4600   -3.9965 C   0  0  0  0  0  3  0  0  0  0  0  0
   18.3672   -4.8755   -3.4558 C   0  0  0  0  0  0  0  0  0  0  0  0
   17.9969   -3.6866   -2.6060 C   0  0  1  0  0  0  0  0  0  0  0  0
   16.7030   -3.8136   -2.0012 N   0  0  0  0  0  1  0  0  0  0  0  0
   19.0176   -3.5915   -1.4859 C   0  0  0  0  0  0  0  0  0  0  0  0
   18.0726   -2.4294   -3.4547 C   0  0  0  0  0  0  0  0  0  0  0  0
   19.2920   -2.3862   -4.2736 C   0  0  0  0  0  0  0  0  0  0  0  0
   20.2126   -1.6801   -3.9008 O   0  0  0  0  0  0  0  0  0  0  0  0
  1  2  1  0
  2  3  1  0
  2  4  1  0
  4  5  1  0
  5  6  1  0
  6  7  1  0
  7  8  1  1
  7  9  1  0
  9 10  1  0
 10 11  1  0
 11 12  1  0
 12 13  1  6
 12 14  1  0
 14 15  1  0
 15 16  1  0
 16 17  1  0
 16 18  1  1
 16 19  1  0
 19 20  1  0
 20 21  2  0
M  CHG  1  17   1
M  RAD  4   9   2  11   2  14   2  17   2
M  END
>  <docking_score>  (1) 
-3.1179999999999999

$$$$

     RDKit          3D

 21 20  0  0  0  0  0  0  0  0999 V2000
   15.7662   -1.2224   -1.3015 C   0  0  0  0  0  0  0  0  0  0  0  0
   16.1542   -1.3903   -2.7478 C   0  0  0  0  0  0  0  0  0  0  0  0
   14.9732   -1.4902   -3.6696 C   0  0  0  0  0  0  0  0  0  0  0  0
   17.0324   -2.5940   -2.8830 C   0  0  0  0  0  0  0  0  0  0  0  0
   16.8035   -3.6107   -1.8148 C   0  0  0  0  0  0  0  0  0  0  0  0
   17.6855   -4.8264   -2.0705 C   0  0  0  0  0  0  0  0  0  0  0  0
   18.9091   -4.4300   -2.8795 C   0  0  1  0  0  0  0  0  0  0  0  0
   20.1173   -4.2107   -2.0037 C   0  0  0  0  0  0  0  0  0  0  0  0
   19.1929   -5.5349   -3.8554 C   0  0  0  0  0  3  0  0  0  0  0  0
   18.0426   -6.5234   -3.8805 C   0  0  0  0  0  0  0  0  0  0  0  0
   17.3134   -6.3289   -5.1798 C   0  0  0  0  0  3  0  0  0  0  0  0
   15.9189   -5.8404   -4.8645 C   0  0  2  0  0  0  0  0  0  0  0  0
   14.9297   -6.9815   -4.8175 C   0  0  0  0  0  0  0  0  0  0  0  0
   15.4507   -4.8228   -5.9067 C   0  0  0  0  0  3  0  0  0  0  0  0
   16.6593   -3.9648   -6.2326 C   0  0  0  0  0  0  0  0  0  0  0  0
   16.2881   -3.1017   -7.4115 C   0  0  1  0  0  0  0  0  0  0  0  0
   14.9132   -3.2403   -7.7944 N   0  0  0  0  0  1  0  0  0  0  0  0
   16.5053   -1.6553   -7.0037 C   0  0  0  0  0  0  0  0  0  0  0  0
   17.2062   -3.4327   -8.5752 C   0  0  0  0  0  0  0  0  0  0  0  0
   18.2808   -2.4427   -8.7321 C   0  0  0  0  0  0  0  0  0  0  0  0
   19.0638   -2.2902   -7.8108 O   0  0  0  0  0  0  0  0  0  0  0  0
  1  2  1  0
  2  3  1  0
  2  4  1  0
  4  5  1  0
  5  6  1  0
  6  7  1  0
  7  8  1  1
  7  9  1  0
  9 10  1  0
 10 11  1  0
 11 12  1  0
 12 13  1  6
 12 14  1  0
 14 15  1  0
 15 16  1  0
 16 17  1  0
 16 18  1  1
 16 19  1  0
 19 20  1  0
 20 21  2  0
M  CHG  1  17   1
M  RAD  4   9   2  11   2  14   2  17   2
M  END
>  <docking_score>  (2) 
-2.6800000000000002

$$$$

     RDKit          3D

 21 20  0  0  0  0  0  0  0  0999 V2000
   16.0938   -3.7178   -7.4016 C   0  0  0  0  0  0  0  0  0  0  0  0
   15.6778   -5.1142   -7.7856 C   0  0  0  0  0  0  0  0  0  0  0  0
   14.7313   -5.7410   -6.8028 C   0  0  0  0  0  0  0  0  0  0  0  0
   16.8998   -5.9606   -7.9547 C   0  0  0  0  0  0  0  0  0  0  0  0
   16.9391   -7.1272   -7.0248 C   0  0  0  0  0  0  0  0  0  0  0  0
   18.0683   -8.0657   -7.4316 C   0  0  0  0  0  0  0  0  0  0  0  0
   18.8946   -8.4548   -6.2172 C   0  0  1  0  0  0  0  0  0  0  0  0
   20.3603   -8.1590   -6.4141 C   0  0  0  0  0  0  0  0  0  0  0  0
   18.3805   -7.6745   -5.0421 C   0  0  0  0  0  3  0  0  0  0  0  0
   19.3991   -6.6354   -4.6139 C   0  0  0  0  0  0  0  0  0  0  0  0
   18.6521   -5.3589   -4.3485 C   0  0  0  0  0  3  0  0  0  0  0  0
   17.7041   -5.6029   -3.1978 C   0  0  2  0  0  0  0  0  0  0  0  0
   16.2640   -5.5931   -3.6549 C   0  0  0  0  0  0  0  0  0  0  0  0
   17.8848   -4.5420   -2.1102 C   0  0  0  0  0  3  0  0  0  0  0  0
   18.7791   -3.4716   -2.7082 C   0  0  0  0  0  0  0  0  0  0  0  0
   17.9961   -2.1834   -2.7040 C   0  0  1  0  0  0  0  0  0  0  0  0
   18.7158   -1.0942   -2.1106 N   0  0  0  0  0  1  0  0  0  0  0  0
   17.7188   -1.8138   -4.1504 C   0  0  0  0  0  0  0  0  0  0  0  0
   16.6762   -2.4093   -1.9875 C   0  0  0  0  0  0  0  0  0  0  0  0
   15.8225   -1.2135   -2.0086 C   0  0  0  0  0  0  0  0  0  0  0  0
   15.0985   -1.0385   -2.9730 O   0  0  0  0  0  0  0  0  0  0  0  0
  1  2  1  0
  2  3  1  0
  2  4  1  0
  4  5  1  0
  5  6  1  0
  6  7  1  0
  7  8  1  6
  7  9  1  0
  9 10  1  0
 10 11  1  0
 11 12  1  0
 12 13  1  6
 12 14  1  0
 14 15  1  0
 15 16  1  0
 16 17  1  0
 16 18  1  6
 16 19  1  0
 19 20  1  0
 20 21  2  0
M  CHG  1  17   1
M  RAD  4   9   2  11   2  14   2  17   2
M  END
>  <docking_score>  (3) 
-2.5179999999999998

$$$$
