
     RDKit          3D

 15 16  0  0  0  0  0  0  0  0999 V2000
   17.6862   -1.6333   -2.6669 C   0  0  0  0  0  0  0  0  0  0  0  0
   18.0374   -3.0142   -3.1796 C   0  0  1  0  0  0  0  0  0  0  0  0
   18.5797   -3.8882   -2.0532 C   0  0  0  0  0  0  0  0  0  0  0  0
   18.9795   -5.2003   -2.7107 C   0  0  2  0  0  0  0  0  0  0  0  0
   19.7225   -4.8478   -3.8483 O   0  0  0  0  0  0  0  0  0  0  0  0
   17.7343   -5.9140   -3.1926 C   0  0  2  0  0  0  0  0  0  0  0  0
   17.8095   -6.2528   -4.5402 O   0  0  0  0  0  0  0  0  0  0  0  0
   16.5131   -5.0127   -3.0518 C   0  0  1  0  0  0  0  0  0  0  0  0
   16.2014   -4.7963   -1.7067 O   0  0  0  0  0  0  0  0  0  0  0  0
   16.8121   -3.6972   -3.7229 C   0  0  1  0  0  0  0  0  0  0  0  0
   15.6778   -2.8052   -3.6193 N   0  0  0  0  0  0  0  0  0  0  0  0
   14.8947   -2.8261   -4.8384 C   0  0  0  0  0  3  0  0  0  0  0  0
   14.0944   -1.5545   -4.9443 C   0  0  2  0  0  0  0  0  0  0  0  0
   14.6010   -0.2903   -5.3350 C   0  0  0  0  0  0  0  0  0  0  0  0
   14.2780   -0.6006   -3.9509 O   0  0  0  0  0  0  0  0  0  0  0  0
  2  1  1  1
  2  3  1  0
  3  4  1  0
  4  5  1  6
  4  6  1  0
  6  7  1  6
  6  8  1  0
  8  9  1  1
  8 10  1  0
 10 11  1  1
 11 12  1  0
 13 12  1  1
 13 14  1  0
 13 15  1  0
 10  2  1  0
 15 14  1  0
M  RAD  1  12   2
M  END
>  <docking_score>  (1) 
-4.431

$$$$

     RDKit          3D

 15 16  0  0  0  0  0  0  0  0999 V2000
   15.0047   -1.7145   -3.9812 C   0  0  0  0  0  0  0  0  0  0  0  0
   16.4445   -2.0827   -3.6910 C   0  0  1  0  0  0  0  0  0  0  0  0
   16.7624   -1.8989   -2.2105 C   0  0  0  0  0  0  0  0  0  0  0  0
   18.2456   -2.2059   -2.0701 C   0  0  2  0  0  0  0  0  0  0  0  0
   18.8833   -1.4926   -3.0971 O   0  0  0  0  0  0  0  0  0  0  0  0
   18.4754   -3.6783   -2.3380 C   0  0  2  0  0  0  0  0  0  0  0  0
   19.4414   -3.8910   -3.3168 O   0  0  0  0  0  0  0  0  0  0  0  0
   17.1998   -4.3332   -2.8550 C   0  0  1  0  0  0  0  0  0  0  0  0
   16.2226   -4.3858   -1.8571 O   0  0  0  0  0  0  0  0  0  0  0  0
   16.6913   -3.5290   -4.0233 C   0  0  1  0  0  0  0  0  0  0  0  0
   15.4792   -4.1148   -4.5535 N   0  0  0  0  0  0  0  0  0  0  0  0
   15.7432   -4.7981   -5.8039 C   0  0  0  0  0  3  0  0  0  0  0  0
   15.2449   -6.2168   -5.7169 C   0  0  2  0  0  0  0  0  0  0  0  0
   14.6932   -6.8288   -4.5643 C   0  0  0  0  0  0  0  0  0  0  0  0
   16.0371   -7.1303   -5.0326 O   0  0  0  0  0  0  0  0  0  0  0  0
  2  1  1  1
  2  3  1  0
  3  4  1  0
  4  5  1  6
  4  6  1  0
  6  7  1  6
  6  8  1  0
  8  9  1  1
  8 10  1  0
 10 11  1  1
 11 12  1  0
 13 12  1  1
 13 14  1  0
 13 15  1  0
 10  2  1  0
 15 14  1  0
M  RAD  1  12   2
M  END
>  <docking_score>  (2) 
-4.1210000000000004

$$$$

     RDKit          3D

 15 16  0  0  0  0  0  0  0  0999 V2000
   17.3117   -3.3266   -2.0242 C   0  0  0  0  0  0  0  0  0  0  0  0
   17.8265   -4.1480   -3.1874 C   0  0  1  0  0  0  0  0  0  0  0  0
   17.9989   -5.6090   -2.7842 C   0  0  0  0  0  0  0  0  0  0  0  0
   18.6044   -6.2987   -3.9972 C   0  0  2  0  0  0  0  0  0  0  0  0
   19.6627   -5.4774   -4.4162 O   0  0  0  0  0  0  0  0  0  0  0  0
   17.5848   -6.3212   -5.1161 C   0  0  2  0  0  0  0  0  0  0  0  0
   18.0856   -5.7793   -6.2960 O   0  0  0  0  0  0  0  0  0  0  0  0
   16.3686   -5.4793   -4.7483 C   0  0  1  0  0  0  0  0  0  0  0  0
   15.6459   -6.0692   -3.7076 O   0  0  0  0  0  0  0  0  0  0  0  0
   16.8447   -4.1133   -4.3267 C   0  0  1  0  0  0  0  0  0  0  0  0
   15.7227   -3.2725   -3.9700 N   0  0  0  0  0  0  0  0  0  0  0  0
   14.8420   -3.0821   -5.1049 C   0  0  0  0  0  3  0  0  0  0  0  0
   14.1479   -1.7507   -4.9855 C   0  0  2  0  0  0  0  0  0  0  0  0
   14.7124   -0.4931   -5.3130 C   0  0  0  0  0  0  0  0  0  0  0  0
   14.5295   -0.9243   -3.9357 O   0  0  0  0  0  0  0  0  0  0  0  0
  2  1  1  1
  2  3  1  0
  3  4  1  0
  4  5  1  6
  4  6  1  0
  6  7  1  6
  6  8  1  0
  8  9  1  1
  8 10  1  0
 10 11  1  1
 11 12  1  0
 13 12  1  6
 13 14  1  0
 13 15  1  0
 10  2  1  0
 15 14  1  0
M  RAD  1  12   2
M  END
>  <docking_score>  (3) 
-3.9249999999999998

$$$$
