
     RDKit          3D

 38 39  0  0  0  0  0  0  0  0999 V2000
    2.2588    8.4196    9.4994 C   0  0  0  0  0  0  0  0  0  0  0  0
    2.8682    8.7819    8.3745 C   0  0  0  0  0  0  0  0  0  0  0  0
    3.9287    7.8704    7.8519 C   0  0  0  0  0  0  0  0  0  0  0  0
    2.4629   10.0370    7.7395 C   0  0  0  0  0  3  0  0  0  0  0  0
    3.4814   10.7367    6.9317 C   0  0  2  0  0  0  0  0  0  0  0  0
    3.4816   10.5037    5.4687 C   0  0  2  0  0  0  0  0  0  0  0  0
    3.5884    9.1279    5.0045 C   0  0  0  0  0  3  0  0  0  0  0  0
    2.4567    8.3399    4.6032 C   0  0  0  0  0  0  0  0  0  0  0  0
    2.8416    7.0030    4.0454 C   0  0  0  0  0  0  0  0  0  0  0  0
    3.6628    7.1792    2.8355 C   0  0  0  0  0  0  0  0  0  0  0  0
    4.3204    6.2721    2.3813 O   0  0  0  0  0  0  0  0  0  0  0  0
    4.9709    8.7724    4.6790 C   0  0  0  0  0  0  0  0  0  0  0  0
    5.7571   10.0726    4.8689 C   0  0  0  0  0  0  0  0  0  0  0  0
    4.7364   11.1789    4.9131 C   0  0  1  0  0  0  0  0  0  0  0  0
    4.4032   11.6458    3.5153 C   0  0  0  0  0  0  0  0  0  0  0  0
    5.5884   11.3349    2.6007 C   0  0  0  0  0  0  0  0  0  0  0  0
    6.8244   11.8840    3.2498 C   0  0  0  0  0  3  0  0  0  0  0  0
    6.5117   13.1618    3.8239 N   0  0  0  0  0  0  0  0  0  0  0  0
    7.4780   13.8346    4.3276 C   0  0  0  0  0  0  0  0  0  0  0  0
    7.2676   15.1732    4.9498 C   0  0  0  0  0  0  0  0  0  0  0  0
    7.1884   15.0313    6.4573 C   0  0  0  0  0  0  0  0  0  0  0  0
    6.0187   15.9067    6.9143 C   0  0  0  0  0  0  0  0  0  0  0  0
    5.2793   15.1663    8.0096 C   0  0  0  0  0  0  0  0  0  0  0  0
    6.1560   14.9587    9.2353 C   0  0  1  0  0  0  0  0  0  0  0  0
    5.7657   15.9483   10.3109 C   0  0  0  0  0  0  0  0  0  0  0  0
    5.8715   13.5591    9.7926 C   0  0  0  0  0  0  0  0  0  0  0  0
    4.3690   13.4756    9.9626 C   0  0  0  0  0  0  0  0  0  0  0  0
    3.8889   12.2194    9.2864 C   0  0  2  0  0  0  0  0  0  0  0  0
    3.2053   11.2748   10.2426 C   0  0  0  0  0  0  0  0  0  0  0  0
    2.2583   12.0926   11.0954 C   0  0  0  0  0  0  0  0  0  0  0  0
    2.5116   11.7173   12.5376 C   0  0  2  0  0  0  0  0  0  0  0  0
    3.3578   12.7505   13.2458 C   0  0  0  0  0  0  0  0  0  0  0  0
    3.2215   10.3643   12.5092 C   0  0  0  0  0  0  0  0  0  0  0  0
    2.2655    9.3851   13.1905 C   0  0  0  0  0  3  0  0  0  0  0  0
    2.7668    8.0059   13.1639 C   0  0  0  0  0  0  0  0  0  0  0  0
    3.9109    7.6151   12.6599 C   0  0  0  0  0  3  0  0  0  0  0  0
    5.0106   11.4929    8.6470 C   0  0  0  0  0  0  0  0  0  0  0  0
    4.8205   10.7957    7.5401 C   0  0  0  0  0  0  0  0  0  0  0  0
  1  2  2  0
  2  3  1  0
  2  4  1  0
  5  4  1  1
  5  6  1  0
  6  7  1  1
  7  8  1  0
  8  9  1  0
  9 10  1  0
 10 11  2  0
  7 12  1  0
 12 13  1  0
 14 13  1  6
 14 15  1  0
 15 16  1  0
 16 17  1  0
 17 18  1  0
 18 19  2  3
 19 20  1  0
 20 21  1  0
 21 22  1  0
 22 23  1  0
 23 24  1  0
 24 25  1  1
 24 26  1  0
 26 27  1  0
 27 28  1  0
 28 29  1  1
 29 30  1  0
 30 31  1  0
 31 32  1  6
 31 33  1  0
 33 34  1  0
 34 35  1  0
 35 36  2  0
 28 37  1  0
 37 38  2  3
 38  5  1  0
 14  6  1  0
M  RAD  5   4   2   7   2  17   2  34   2  36   2
M  END
>  <docking_score>  (1) 
-2.9319999999999999

$$$$

     RDKit          3D

 38 39  0  0  0  0  0  0  0  0999 V2000
    5.6496   13.9462    4.0356 C   0  0  0  0  0  0  0  0  0  0  0  0
    5.5385   14.0800    5.3538 C   0  0  0  0  0  0  0  0  0  0  0  0
    4.8095   15.2821    5.8561 C   0  0  0  0  0  0  0  0  0  0  0  0
    6.1363   13.0526    6.2080 C   0  0  0  0  0  3  0  0  0  0  0  0
    5.4609   11.7404    6.2479 C   0  0  2  0  0  0  0  0  0  0  0  0
    5.9238   10.6969    5.3036 C   0  0  2  0  0  0  0  0  0  0  0  0
    5.9192   11.0212    3.8843 C   0  0  0  0  0  3  0  0  0  0  0  0
    7.0884   11.4492    3.1684 C   0  0  0  0  0  0  0  0  0  0  0  0
    6.9625   11.2782    1.6847 C   0  0  0  0  0  0  0  0  0  0  0  0
    7.0753   12.5852    1.0153 C   0  0  0  0  0  0  0  0  0  0  0  0
    7.7338   13.4820    1.4883 O   0  0  0  0  0  0  0  0  0  0  0  0
    4.7031   10.5432    3.2239 C   0  0  0  0  0  0  0  0  0  0  0  0
    3.9487    9.7780    4.3148 C   0  0  0  0  0  0  0  0  0  0  0  0
    4.9426    9.5294    5.4184 C   0  0  1  0  0  0  0  0  0  0  0  0
    5.7269    8.2666    5.1479 C   0  0  0  0  0  0  0  0  0  0  0  0
    4.8891    7.3535    4.2523 C   0  0  0  0  0  0  0  0  0  0  0  0
    3.5320    7.2183    4.8774 C   0  0  0  0  0  3  0  0  0  0  0  0
    3.6919    7.0939    6.2983 N   0  0  0  0  0  0  0  0  0  0  0  0
    2.6417    6.8568    6.9917 C   0  0  0  0  0  0  0  0  0  0  0  0
    2.6918    6.7086    8.4745 C   0  0  0  0  0  0  0  0  0  0  0  0
    2.2748    8.0085    9.1343 C   0  0  0  0  0  0  0  0  0  0  0  0
    3.2674    8.2546   10.2733 C   0  0  0  0  0  0  0  0  0  0  0  0
    3.5845    9.7354   10.3067 C   0  0  0  0  0  0  0  0  0  0  0  0
    2.3519   10.5646   10.6338 C   0  0  1  0  0  0  0  0  0  0  0  0
    2.4122   11.0147   12.0767 C   0  0  0  0  0  0  0  0  0  0  0  0
    2.3868   11.8307    9.7700 C   0  0  0  0  0  0  0  0  0  0  0  0
    3.7497   12.4514    9.9951 C   0  0  0  0  0  0  0  0  0  0  0  0
    4.3732   12.7159    8.6508 C   0  0  2  0  0  0  0  0  0  0  0  0
    4.6745   14.1772    8.4323 C   0  0  0  0  0  0  0  0  0  0  0  0
    6.1002   14.4226    8.8793 C   0  0  0  0  0  0  0  0  0  0  0  0
    6.2206   13.9194   10.2996 C   0  0  2  0  0  0  0  0  0  0  0  0
    5.9458   12.4360   10.3943 C   0  0  0  0  0  0  0  0  0  0  0  0
    5.2042   14.7110   11.1216 C   0  0  0  0  0  0  0  0  0  0  0  0
    5.9170   16.0030   11.5212 C   0  0  0  0  0  3  0  0  0  0  0  0
    6.5085   15.9222   12.8621 C   0  0  0  0  0  0  0  0  0  0  0  0
    6.0160   15.2598   13.8791 C   0  0  0  0  0  3  0  0  0  0  0  0
    3.4906   12.2600    7.5518 C   0  0  0  0  0  0  0  0  0  0  0  0
    4.0005   11.8012    6.4218 C   0  0  0  0  0  0  0  0  0  0  0  0
  1  2  2  0
  2  3  1  0
  2  4  1  0
  5  4  1  6
  5  6  1  0
  6  7  1  6
  7  8  1  0
  8  9  1  0
  9 10  1  0
 10 11  2  0
  7 12  1  0
 12 13  1  0
 14 13  1  6
 14 15  1  0
 15 16  1  0
 16 17  1  0
 17 18  1  0
 18 19  2  3
 19 20  1  0
 20 21  1  0
 21 22  1  0
 22 23  1  0
 23 24  1  0
 24 25  1  1
 24 26  1  0
 26 27  1  0
 27 28  1  0
 28 29  1  6
 29 30  1  0
 30 31  1  0
 31 32  1  6
 31 33  1  0
 33 34  1  0
 34 35  1  0
 35 36  2  0
 28 37  1  0
 37 38  2  3
 38  5  1  0
 14  6  1  0
M  RAD  5   4   2   7   2  17   2  34   2  36   2
M  END
>  <docking_score>  (2) 
-0.16900000000000001

$$$$
