
     RDKit          3D

 42 43  0  0  0  0  0  0  0  0999 V2000
   21.3459    3.1677   -3.4101 C   0  0  0  0  0  0  0  0  0  0  0  0
   20.7283    2.2034   -4.2113 O   0  0  0  0  0  0  0  0  0  0  0  0
   20.6278    0.9988   -3.5233 C   0  0  0  0  0  3  0  0  0  0  0  0
   19.3803    0.3965   -3.6794 O   0  0  0  0  0  0  0  0  0  0  0  0
   19.3801   -0.7585   -2.9200 C   0  0  2  0  0  0  0  0  0  0  0  0
   20.7609   -1.0936   -2.3919 C   0  0  0  0  0  0  0  0  0  0  0  0
   20.7088   -2.2083   -1.3687 C   0  0  0  0  0  2  0  0  0  0  0  0
   18.9316   -1.9076   -3.7739 C   0  0  1  0  0  0  0  0  0  0  0  0
   18.2097   -2.9737   -2.9790 C   0  0  0  0  0  3  0  0  0  0  0  0
   17.8822   -4.0974   -3.9415 C   0  0  0  0  0  3  0  0  0  0  0  0
   19.0297   -5.0730   -4.0903 C   0  0  2  0  0  0  0  0  0  0  0  0
   18.6629   -6.0275   -5.0009 O   0  0  0  0  0  0  0  0  0  0  0  0
   19.3811   -5.5875   -2.7368 C   0  0  0  0  0  0  0  0  0  0  0  0
   18.4787   -4.9079   -1.7228 C   0  0  0  0  0  0  0  0  0  0  0  0
   20.1805   -4.4329   -4.6050 O   0  0  0  0  0  0  0  0  0  0  0  0
   21.1151   -5.3583   -4.6543 O   0  0  0  0  0  0  0  0  0  0  0  0
   21.3107   -5.8810   -5.9102 C   0  0  0  0  0  3  0  0  0  0  0  0
   20.1953   -6.4510   -6.4780 O   0  0  0  0  0  0  0  0  0  0  0  0
   20.1795   -7.8398   -6.3828 C   0  0  0  0  0  3  0  0  0  0  0  0
   18.8272   -8.2266   -5.7691 C   0  0  2  0  0  0  0  0  0  0  0  0
   17.8603   -7.7740   -6.6825 O   0  0  0  0  0  0  0  0  0  0  0  0
   18.6753   -7.3174   -4.5410 C   0  0  1  0  0  0  0  0  0  0  0  0
   19.7108   -7.6257   -3.6922 O   0  0  0  0  0  0  0  0  0  0  0  0
   19.2781   -8.7171   -2.9042 C   0  0  0  0  0  3  0  0  0  0  0  0
   20.3561   -9.3620   -2.3310 O   0  0  0  0  0  0  0  0  0  0  0  0
   18.1042   -1.4592   -4.9565 C   0  0  0  0  0  3  0  0  0  0  0  0
   16.7432   -1.4805   -4.5744 O   0  0  0  0  0  0  0  0  0  0  0  0
   16.0209   -1.4932   -5.7752 C   0  0  0  0  0  0  0  0  0  0  0  0
   14.6452   -1.5597   -5.5325 O   0  0  0  0  0  0  0  0  0  0  0  0
   14.0472   -2.3385   -6.5227 C   0  0  0  0  0  3  0  0  0  0  0  0
   14.1445   -3.6664   -6.1094 O   0  0  0  0  0  0  0  0  0  0  0  0
   14.4364   -4.5241   -7.1734 C   0  0  0  0  0  3  0  0  0  0  0  0
   15.4897   -5.3826   -6.8080 O   0  0  0  0  0  0  0  0  0  0  0  0
   14.9760   -6.6181   -6.4501 C   0  0  0  0  0  3  0  0  0  0  0  0
   15.8410   -7.3521   -5.6444 O   0  0  0  0  0  0  0  0  0  0  0  0
   16.5976   -8.2572   -6.3723 C   0  0  2  0  0  0  0  0  0  0  0  0
   16.7669   -9.4555   -5.6792 O   0  0  0  0  0  0  0  0  0  0  0  0
   17.0070  -10.4499   -6.6219 C   0  0  0  0  0  3  0  0  0  0  0  0
   16.2383  -11.5761   -6.4143 O   0  0  0  0  0  0  0  0  0  0  0  0
   16.5137  -12.5044   -7.4147 C   0  0  0  0  0  3  0  0  0  0  0  0
   17.8393  -12.3174   -8.0287 C   0  0  0  0  0  0  0  0  0  0  0  0
   18.6442  -13.1978   -8.2180 O   0  0  0  0  0  0  0  0  0  0  0  0
  1  2  1  0
  2  3  1  0
  3  4  1  0
  4  5  1  0
  5  6  1  6
  6  7  1  0
  5  8  1  0
  8  9  1  1
  9 10  1  0
 10 11  1  0
 11 12  1  0
 11 13  1  1
 13 14  1  0
 11 15  1  0
 15 16  1  0
 16 17  1  0
 17 18  1  0
 18 19  1  0
 20 19  1  6
 20 21  1  0
 20 22  1  0
 22 23  1  1
 23 24  1  0
 24 25  1  0
  8 26  1  0
 26 27  1  0
 27 28  1  0
 28 29  1  0
 29 30  1  0
 30 31  1  0
 31 32  1  0
 32 33  1  0
 33 34  1  0
 34 35  1  0
 35 36  1  0
 36 37  1  1
 37 38  1  0
 38 39  1  0
 39 40  1  0
 40 41  1  0
 41 42  2  0
 22 12  1  0
 36 21  1  0
M  RAD  8   3   2   7   3   9   2  10   2  17   2  19   2  24   2  26   2
M  RAD  5  30   2  32   2  34   2  38   2  40   2
M  END
>  <docking_score>  (1) 
-0.19800000000000001

$$$$

     RDKit          3D

 42 43  0  0  0  0  0  0  0  0999 V2000
    9.2973   -1.1580   -3.3562 C   0  0  0  0  0  0  0  0  0  0  0  0
   10.3193   -0.2575   -3.6690 O   0  0  0  0  0  0  0  0  0  0  0  0
   11.4876   -0.9450   -3.9810 C   0  0  0  0  0  3  0  0  0  0  0  0
   12.5985   -0.4471   -3.3017 O   0  0  0  0  0  0  0  0  0  0  0  0
   13.6195   -0.3087   -4.2231 C   0  0  2  0  0  0  0  0  0  0  0  0
   13.1056   -0.3182   -5.6491 C   0  0  0  0  0  0  0  0  0  0  0  0
   14.0340    0.4337   -6.5791 C   0  0  0  0  0  2  0  0  0  0  0  0
   14.5711   -1.4594   -4.0779 C   0  0  1  0  0  0  0  0  0  0  0  0
   15.5665   -1.5358   -5.2149 C   0  0  0  0  0  3  0  0  0  0  0  0
   16.4090   -2.7738   -4.9830 C   0  0  0  0  0  3  0  0  0  0  0  0
   15.7607   -4.0188   -5.5491 C   0  0  2  0  0  0  0  0  0  0  0  0
   16.5670   -5.0878   -5.2627 O   0  0  0  0  0  0  0  0  0  0  0  0
   15.5002   -3.7893   -6.9982 C   0  0  0  0  0  0  0  0  0  0  0  0
   16.3026   -2.5780   -7.4376 C   0  0  0  0  0  0  0  0  0  0  0  0
   14.5118   -4.2683   -4.9352 O   0  0  0  0  0  0  0  0  0  0  0  0
   14.0277   -5.3396   -5.5269 O   0  0  0  0  0  0  0  0  0  0  0  0
   14.1867   -6.4939   -4.7981 C   0  0  0  0  0  3  0  0  0  0  0  0
   15.4894   -6.8022   -4.4826 O   0  0  0  0  0  0  0  0  0  0  0  0
   16.0404   -7.7736   -5.3137 C   0  0  0  0  0  3  0  0  0  0  0  0
   17.3632   -7.2046   -5.8441 C   0  0  2  0  0  0  0  0  0  0  0  0
   18.1640   -7.0017   -4.7076 O   0  0  0  0  0  0  0  0  0  0  0  0
   17.0151   -5.7957   -6.3459 C   0  0  1  0  0  0  0  0  0  0  0  0
   16.1017   -5.9534   -7.3601 O   0  0  0  0  0  0  0  0  0  0  0  0
   16.8435   -6.1798   -8.5424 C   0  0  0  0  0  3  0  0  0  0  0  0
   17.0999   -7.5266   -8.7064 O   0  0  0  0  0  0  0  0  0  0  0  0
   15.2744   -1.4615   -2.7401 C   0  0  0  0  0  3  0  0  0  0  0  0
   16.4856   -0.7456   -2.8790 O   0  0  0  0  0  0  0  0  0  0  0  0
   17.2763   -1.1398   -1.7913 C   0  0  0  0  0  0  0  0  0  0  0  0
   18.5333   -0.5286   -1.8372 O   0  0  0  0  0  0  0  0  0  0  0  0
   19.4900   -1.4226   -1.3573 C   0  0  0  0  0  3  0  0  0  0  0  0
   19.8804   -2.2170   -2.4344 O   0  0  0  0  0  0  0  0  0  0  0  0
   20.0632   -3.5509   -2.0599 C   0  0  0  0  0  3  0  0  0  0  0  0
   19.4008   -4.3896   -2.9752 O   0  0  0  0  0  0  0  0  0  0  0  0
   20.3187   -4.9120   -3.8713 C   0  0  0  0  0  3  0  0  0  0  0  0
   19.7331   -5.3438   -5.0573 O   0  0  0  0  0  0  0  0  0  0  0  0
   19.4748   -6.7057   -5.0514 C   0  0  2  0  0  0  0  0  0  0  0  0
   19.7191   -7.2774   -6.2998 O   0  0  0  0  0  0  0  0  0  0  0  0
   20.2544   -8.5424   -6.0794 C   0  0  0  0  0  3  0  0  0  0  0  0
   21.3564   -8.7981   -6.8685 O   0  0  0  0  0  0  0  0  0  0  0  0
   21.0998   -9.9159   -7.6578 C   0  0  0  0  0  3  0  0  0  0  0  0
   20.0495   -9.6850   -8.6642 C   0  0  0  0  0  0  0  0  0  0  0  0
   18.9971  -10.2754   -8.7135 O   0  0  0  0  0  0  0  0  0  0  0  0
  1  2  1  0
  2  3  1  0
  3  4  1  0
  4  5  1  0
  5  6  1  6
  6  7  1  0
  5  8  1  0
  8  9  1  6
  9 10  1  0
 10 11  1  0
 11 12  1  0
 11 13  1  6
 13 14  1  0
 11 15  1  0
 15 16  1  0
 16 17  1  0
 17 18  1  0
 18 19  1  0
 20 19  1  1
 20 21  1  0
 20 22  1  0
 22 23  1  6
 23 24  1  0
 24 25  1  0
  8 26  1  0
 26 27  1  0
 27 28  1  0
 28 29  1  0
 29 30  1  0
 30 31  1  0
 31 32  1  0
 32 33  1  0
 33 34  1  0
 34 35  1  0
 35 36  1  0
 36 37  1  6
 37 38  1  0
 38 39  1  0
 39 40  1  0
 40 41  1  0
 41 42  2  0
 22 12  1  0
 36 21  1  0
M  RAD  8   3   2   7   3   9   2  10   2  17   2  19   2  24   2  26   2
M  RAD  5  30   2  32   2  34   2  38   2  40   2
M  END
>  <docking_score>  (2) 
1.5009999999999999

$$$$
