
     RDKit          3D

 15 15  0  0  0  0  0  0  0  0999 V2000
   16.3447   -1.5756   -1.9580 C   0  0  0  0  0  0  0  0  0  0  0  0
   17.4418   -2.0820   -2.8913 C   0  0  1  0  0  0  0  0  0  0  0  0
   18.7375   -2.1051   -2.1710 C   0  0  0  0  0  0  0  0  0  0  0  0
   18.9292   -3.3997   -1.4135 C   0  0  2  0  0  0  0  0  0  0  0  0
   20.0817   -3.4190   -0.6693 O   0  0  0  0  0  0  0  0  0  0  0  0
   18.8191   -4.5148   -2.4348 C   0  0  2  0  0  0  0  0  0  0  0  0
   19.5440   -4.1420   -3.5700 O   0  0  0  0  0  0  0  0  0  0  0  0
   17.3626   -4.5832   -2.8310 C   0  0  1  0  0  0  0  0  0  0  0  0
   16.6449   -4.5343   -1.6215 O   0  0  0  0  0  0  0  0  0  0  0  0
   17.0690   -3.3320   -3.6245 C   0  0  1  0  0  0  0  0  0  0  0  0
   15.6369   -3.2606   -3.8807 N   0  0  0  0  0  0  0  0  0  0  0  0
   15.4102   -3.0781   -5.2898 C   0  0  0  0  0  3  0  0  0  0  0  0
   14.4993   -1.9531   -5.5539 C   0  0  0  0  0  0  0  0  0  0  0  0
   14.7853   -0.7165   -5.2335 C   0  0  0  0  0  0  0  0  0  0  0  0
   13.8667    0.2898   -5.5195 O   0  0  0  0  0  0  0  0  0  0  0  0
  2  1  1  1
  2  3  1  0
  3  4  1  0
  4  5  1  6
  4  6  1  0
  6  7  1  6
  6  8  1  0
  8  9  1  1
  8 10  1  0
 10 11  1  1
 11 12  1  0
 12 13  1  0
 13 14  2  3
 14 15  1  0
 10  2  1  0
M  RAD  1  12   2
M  END
>  <docking_score>  (1) 
-4.2279999999999998

$$$$

     RDKit          3D

 15 15  0  0  0  0  0  0  0  0999 V2000
   16.3782   -4.5419   -1.6275 C   0  0  0  0  0  0  0  0  0  0  0  0
   17.2226   -3.4197   -2.2266 C   0  0  1  0  0  0  0  0  0  0  0  0
   18.6320   -3.5700   -1.7918 C   0  0  0  0  0  0  0  0  0  0  0  0
   19.4005   -4.4956   -2.7079 C   0  0  2  0  0  0  0  0  0  0  0  0
   20.6863   -4.7208   -2.2855 O   0  0  0  0  0  0  0  0  0  0  0  0
   19.2881   -3.9102   -4.1019 C   0  0  2  0  0  0  0  0  0  0  0  0
   19.4884   -2.5298   -4.0148 O   0  0  0  0  0  0  0  0  0  0  0  0
   17.8592   -4.1326   -4.5401 C   0  0  1  0  0  0  0  0  0  0  0  0
   17.5723   -5.4702   -4.2101 O   0  0  0  0  0  0  0  0  0  0  0  0
   16.9988   -3.2249   -3.6932 C   0  0  1  0  0  0  0  0  0  0  0  0
   15.5974   -3.5272   -3.9508 N   0  0  0  0  0  0  0  0  0  0  0  0
   15.1275   -2.7246   -5.0485 C   0  0  0  0  0  3  0  0  0  0  0  0
   14.9268   -1.3220   -4.6512 C   0  0  0  0  0  0  0  0  0  0  0  0
   13.7684   -0.7180   -4.7355 C   0  0  0  0  0  0  0  0  0  0  0  0
   13.6647    0.6120   -4.3376 O   0  0  0  0  0  0  0  0  0  0  0  0
  2  1  1  6
  2  3  1  0
  3  4  1  0
  4  5  1  1
  4  6  1  0
  6  7  1  1
  6  8  1  0
  8  9  1  1
  8 10  1  0
 10 11  1  1
 11 12  1  0
 12 13  1  0
 13 14  2  3
 14 15  1  0
 10  2  1  0
M  RAD  1  12   2
M  END
>  <docking_score>  (2) 
-3.9830000000000001

$$$$
