
     RDKit          3D

 85 86  0  0  0  0  0  0  0  0999 V2000
   12.4049   15.8694   17.1336 C   0  0  0  0  0  0  0  0  0  0  0  0
   12.3173   14.9114   18.2970 C   0  0  0  0  0  0  0  0  0  0  0  0
   11.6173   15.5521   19.4779 C   0  0  0  0  0  0  0  0  0  0  0  0
   13.6935   14.3882   18.6789 C   0  0  0  0  0  0  0  0  0  0  0  0
   14.6053   14.5844   17.4862 C   0  0  0  0  0  0  0  0  0  0  0  0
   15.4107   13.2879   17.3376 C   0  0  0  0  0  0  0  0  0  0  0  0
   16.7214   13.6241   16.6675 C   0  0  1  0  0  0  0  0  0  0  0  0
   17.3747   14.8360   17.2689 C   0  0  0  0  0  0  0  0  0  0  0  0
   17.5942   12.4026   16.6547 C   0  0  0  0  0  3  0  0  0  0  0  0
   17.0418   11.4616   15.6027 C   0  0  0  0  0  0  0  0  0  0  0  0
   15.5881   11.2486   15.8812 C   0  0  0  0  0  0  0  0  0  0  0  0
   14.7911   11.2745   14.5815 C   0  0  2  0  0  0  0  0  0  0  0  0
   14.6021   12.7156   14.2041 C   0  0  0  0  0  0  0  0  0  0  0  0
   13.5325   10.5245   14.8270 C   0  0  1  0  0  0  0  0  0  0  0  0
   12.2736   11.3243   14.7518 C   0  0  0  0  0  0  0  0  0  0  0  0
   12.4646   12.7730   14.3939 C   0  0  2  0  0  0  0  0  0  0  0  0
   12.2956   13.6555   15.6384 C   0  0  0  0  0  0  0  0  0  0  0  0
   11.3695   13.1091   13.3876 C   0  0  0  0  0  0  0  0  0  0  0  0
   11.5847   14.4833   12.7922 C   0  0  0  0  0  0  0  0  0  0  0  0
   10.7128   14.7698   11.7752 O   0  0  0  0  0  0  0  0  0  0  0  0
    9.9407   13.7233   11.3430 C   0  0  0  0  0  0  0  0  0  0  0  0
    9.0662   13.1017   12.3774 C   0  0  0  0  0  0  0  0  0  0  0  0
    8.2964   14.0252   13.0940 O   0  0  0  0  0  0  0  0  0  0  0  0
    8.0743   15.2909   12.5891 C   0  0  0  0  0  0  0  0  0  0  0  0
    7.3348   15.4392   11.5131 C   0  0  0  0  0  0  0  0  0  0  0  0
    6.7541   14.2411   10.8645 C   0  0  0  0  0  0  0  0  0  0  0  0
    5.5186   14.6943   10.1003 C   0  0  1  0  0  0  0  0  0  0  0  0
    5.6191   16.0166    9.7022 O   0  0  0  0  0  0  0  0  0  0  0  0
    5.9808   16.0687    8.3897 C   0  0  0  0  0  3  0  0  0  0  0  0
    6.1143   14.6918    7.8379 C   0  0  0  0  0  0  0  0  0  0  0  0
    5.3532   13.8576    8.8583 C   0  0  2  0  0  0  0  0  0  0  0  0
    3.8766   13.8137    8.4996 C   0  0  0  0  0  0  0  0  0  0  0  0
    3.5750   14.9474    7.5300 C   0  0  0  0  0  3  0  0  0  0  0  0
    3.8093   14.3984    6.1397 C   0  0  0  0  0  0  0  0  0  0  0  0
    2.6968   14.8734    5.2439 C   0  0  0  0  0  0  0  0  0  0  0  0
    2.2666   13.5194    4.1192 S   0  0  0  0  0  0  0  0  0  0  0  0
    3.4424   13.5214    2.7802 N   0  0  0  0  0  0  0  0  0  0  0  0
    3.1908   12.3380    1.9552 C   0  0  0  0  0  2  0  0  0  0  0  0
    3.1491   11.0736    2.7539 C   0  0  0  0  0  0  0  0  0  0  0  0
    4.0086   11.1465    3.9934 C   0  0  0  0  0  0  0  0  0  0  0  0
    5.0963   12.1822    3.8604 C   0  0  2  0  0  0  0  0  0  0  0  0
    6.0587   11.9489    2.3382 S   0  0  0  0  0  0  0  0  0  0  0  0
    6.0480   12.0536    5.0303 C   0  0  0  0  0  3  0  0  0  0  0  0
    7.3073   12.8584    4.7939 C   0  0  0  0  0  0  0  0  0  0  0  0
    6.3712   10.5821    5.2004 C   0  0  2  0  0  0  0  0  0  0  0  0
    5.9491   10.0604    6.5601 C   0  0  0  0  0  0  0  0  0  0  0  0
    7.8087   10.2855    4.9006 C   0  0  0  0  0  0  0  0  0  0  0  0
    8.7261   11.0703    5.7970 C   0  0  0  0  0  0  0  0  0  0  0  0
    8.1684   11.2109    7.1952 C   0  0  0  0  0  0  0  0  0  0  0  0
    8.7903   10.1381    8.0412 C   0  0  0  0  0  0  0  0  0  0  0  0
   10.2039    9.9215    7.5800 C   0  0  2  0  0  0  0  0  0  0  0  0
   10.2664    9.2365    6.2320 C   0  0  0  0  0  0  0  0  0  0  0  0
   10.8720    8.9693    8.5763 C   0  0  0  0  0  0  0  0  0  0  0  0
   12.3610    8.9949    8.2337 C   0  0  0  0  0  3  0  0  0  0  0  0
   12.6871   10.4632    7.9515 C   0  0  0  0  0  0  0  0  0  0  0  0
   12.7411   11.1297    9.3293 C   0  0  0  0  0  0  0  0  0  0  0  0
   13.7172   10.0222   10.3840 S   0  0  0  0  0  0  0  0  0  0  0  0
   12.6281    8.8298   11.2463 C   0  0  0  0  0  2  0  0  0  0  0  0
   11.9377    9.5998   12.3499 C   0  0  1  0  0  0  0  0  0  0  0  0
   10.5320    9.9853   11.9978 C   0  0  0  0  0  0  0  0  0  0  0  0
   12.0291    8.8926   13.6858 C   0  0  2  0  0  0  0  0  0  0  0  0
   11.0879    9.3790   14.5813 O   0  0  0  0  0  0  0  0  0  0  0  0
   13.4308    9.1732   14.2158 C   0  0  1  0  0  0  0  0  0  0  0  0
   14.4149    9.0328   13.0967 C   0  0  0  0  0  0  0  0  0  0  0  0
   15.7145    8.4591   13.6980 C   0  0  2  0  0  0  0  0  0  0  0  0
   16.8532    9.0275   12.8923 C   0  0  0  0  0  0  0  0  0  0  0  0
   15.5974    6.9665   13.5834 C   0  0  0  0  0  0  0  0  0  0  0  0
   16.8788    6.4063   13.0344 C   0  0  0  0  0  0  0  0  0  0  0  0
   16.5884    5.2667   12.1091 C   0  0  0  0  0  0  0  0  0  0  0  0
   15.7941    4.2124   12.8126 C   0  0  2  0  0  0  0  0  0  0  0  0
   16.7435    2.9936   12.9325 C   0  0  0  0  0  0  0  0  0  0  0  0
   14.6508    3.7250   12.0834 N   0  0  0  0  0  0  0  0  0  0  0  0
   14.8793    2.3037   11.8174 C   0  0  0  0  0  3  0  0  0  0  0  0
   14.7375    1.9731   10.4224 N   0  0  0  0  0  0  0  0  0  0  0  0
   16.0280    1.9352    9.7347 C   0  0  2  0  0  0  0  0  0  0  0  0
   16.4409    3.3261    9.2967 C   0  0  0  0  0  0  0  0  0  0  0  0
   15.9424    1.0061    8.5294 C   0  0  0  0  0  3  0  0  0  0  0  0
   14.4931    0.6585    8.3235 C   0  0  0  0  0  0  0  0  0  0  0  0
   14.2751    0.2672    6.8797 C   0  0  0  0  0  3  0  0  0  0  0  0
   14.5412   -1.1717    6.7360 N   0  0  0  0  0  0  0  0  0  0  0  0
   15.3962   -1.6129    7.8240 C   0  0  0  0  0  0  0  0  0  0  0  0
   15.2576   -1.3211    5.5409 N   0  0  0  0  0  0  0  0  0  0  0  0
   15.9184    0.2274    5.0551 S   0  0  0  0  0  0  0  0  0  0  0  0
   14.7767    0.9755    3.8395 C   0  0  0  0  0  3  0  0  0  0  0  0
   13.8864    0.0226    3.4250 F   0  0  0  0  0  0  0  0  0  0  0  0
  1  2  1  0
  2  3  1  0
  2  4  1  0
  4  5  1  0
  5  6  1  0
  6  7  1  0
  7  8  1  1
  7  9  1  0
  9 10  1  0
 10 11  1  0
 11 12  1  0
 12 13  1  1
 12 14  1  0
 14 15  1  6
 15 16  1  0
 16 17  1  1
 16 18  1  0
 18 19  1  0
 19 20  1  0
 20 21  1  0
 21 22  1  0
 22 23  1  0
 23 24  1  0
 24 25  2  3
 25 26  1  0
 27 26  1  6
 27 28  1  0
 28 29  1  0
 29 30  1  0
 31 30  1  6
 31 32  1  0
 32 33  1  0
 33 34  1  0
 34 35  1  0
 35 36  1  0
 36 37  1  0
 37 38  1  0
 38 39  1  0
 39 40  1  0
 40 41  1  0
 41 42  1  6
 41 43  1  0
 43 44  1  0
 43 45  1  0
 45 46  1  1
 45 47  1  0
 47 48  1  0
 48 49  1  0
 49 50  1  0
 50 51  1  0
 51 52  1  6
 51 53  1  0
 53 54  1  0
 54 55  1  0
 55 56  1  0
 56 57  1  0
 57 58  1  0
 58 59  1  0
 59 60  1  6
 59 61  1  0
 61 62  1  1
 61 63  1  0
 63 64  1  6
 64 65  1  0
 65 66  1  6
 65 67  1  0
 67 68  1  0
 68 69  1  0
 69 70  1  0
 70 71  1  6
 70 72  1  0
 72 73  1  0
 73 74  1  0
 74 75  1  0
 75 76  1  6
 75 77  1  0
 77 78  1  0
 78 79  1  0
 79 80  1  0
 80 81  1  0
 80 82  1  0
 82 83  1  0
 83 84  1  0
 84 85  1  0
 63 14  1  0
 31 27  1  0
M  RAD  8   9   2  29   2  33   2  38   3  43   2  54   2  58   3  73   2
M  RAD  3  77   2  79   2  84   2
M  END
>  <docking_score>  (1) 
148.85599999999999

$$$$
