
     RDKit          3D

 26 27  0  0  0  0  0  0  0  0999 V2000
   21.3824   -6.5877   -3.7426 C   0  0  0  0  0  0  0  0  0  0  0  0
   21.2008   -5.1236   -3.5261 C   0  0  0  0  0  0  0  0  0  0  0  0
   21.2186   -4.4061   -4.5706 O   0  0  0  0  0  0  0  0  0  0  0  0
   21.0236   -4.5683   -2.2749 O   0  0  0  0  0  0  0  0  0  0  0  0
   20.3720   -3.3382   -2.1076 C   0  0  0  0  0  3  0  0  0  0  0  0
   21.3638   -2.3062   -1.7482 C   0  0  0  0  0  0  0  0  0  0  0  0
   21.3289   -1.1616   -2.2064 O   0  0  0  0  0  0  0  0  0  0  0  0
   19.2664   -3.3618   -1.1028 C   0  0  0  0  0  0  0  0  0  0  0  0
   17.9230   -3.1273   -1.7830 C   0  0  0  0  0  0  0  0  0  0  0  0
   18.0943   -2.3907   -3.0877 C   0  0  0  0  0  3  0  0  0  0  0  0
   16.7684   -2.4258   -3.8180 C   0  0  2  0  0  0  0  0  0  0  0  0
   16.1260   -3.7628   -3.5397 C   0  0  0  0  0  0  0  0  0  0  0  0
   16.3151   -4.7569   -4.6395 C   0  0  2  0  0  0  0  0  0  0  0  0
   17.7755   -5.0704   -4.9062 C   0  0  0  0  0  0  0  0  0  0  0  0
   15.7165   -4.2291   -5.9017 C   0  0  0  0  0  0  0  0  0  0  0  0
   15.1861   -4.9852   -6.8296 C   0  0  0  0  0  0  0  0  0  0  0  0
   14.6375   -4.3609   -8.0080 C   0  0  0  0  0  0  0  0  0  0  0  0
   13.8595   -5.0196   -8.7400 O   0  0  0  0  0  0  0  0  0  0  0  0
   14.9408   -2.9648   -8.4163 C   0  0  0  0  0  0  0  0  0  0  0  0
   15.9300   -2.3126   -7.4776 C   0  0  0  0  0  0  0  0  0  0  0  0
   15.7544   -2.7349   -6.0595 C   0  0  1  0  0  0  0  0  0  0  0  0
   14.5412   -2.1699   -5.4002 C   0  0  0  0  0  0  0  0  0  0  0  0
   17.0006   -2.2856   -5.2849 C   0  0  1  0  0  0  0  0  0  0  0  0
   17.3618   -0.9015   -5.7250 C   0  0  0  0  0  0  0  0  0  0  0  0
   18.8310   -0.6729   -5.7529 C   0  0  0  0  0  0  0  0  0  0  0  0
   19.5095   -1.4769   -6.3513 O   0  0  0  0  0  0  0  0  0  0  0  0
  1  2  1  0
  2  3  2  0
  2  4  1  0
  4  5  1  0
  5  6  1  0
  6  7  2  0
  5  8  1  0
  8  9  1  0
  9 10  1  0
 11 10  1  1
 11 12  1  0
 12 13  1  0
 13 14  1  6
 13 15  1  0
 15 16  2  0
 16 17  1  0
 17 18  2  0
 17 19  1  0
 19 20  1  0
 20 21  1  0
 21 22  1  1
 21 23  1  0
 23 24  1  1
 24 25  1  0
 25 26  2  0
 23 11  1  0
 21 15  1  0
M  RAD  2   5   2  10   2
M  END
>  <docking_score>  (1) 
-4.1189999999999998

$$$$

     RDKit          3D

 26 27  0  0  0  0  0  0  0  0999 V2000
    4.5063    8.5565   10.6180 C   0  0  0  0  0  0  0  0  0  0  0  0
    3.8437    8.6169    9.2835 C   0  0  0  0  0  0  0  0  0  0  0  0
    2.6039    8.8793    9.2956 O   0  0  0  0  0  0  0  0  0  0  0  0
    4.5222    8.4033    8.1006 O   0  0  0  0  0  0  0  0  0  0  0  0
    3.9789    8.7895    6.8672 C   0  0  0  0  0  3  0  0  0  0  0  0
    4.1917    7.7117    5.8819 C   0  0  0  0  0  0  0  0  0  0  0  0
    5.1569    7.6929    5.1142 O   0  0  0  0  0  0  0  0  0  0  0  0
    4.5125   10.0817    6.3399 C   0  0  0  0  0  0  0  0  0  0  0  0
    3.3704   10.9918    5.9042 C   0  0  0  0  0  0  0  0  0  0  0  0
    3.8752   12.3683    5.5513 C   0  0  0  0  0  3  0  0  0  0  0  0
    5.2510   12.2150    4.9382 C   0  0  2  0  0  0  0  0  0  0  0  0
    6.2085   13.0616    5.7408 C   0  0  0  0  0  0  0  0  0  0  0  0
    6.5039   14.3861    5.1146 C   0  0  2  0  0  0  0  0  0  0  0  0
    5.2661   15.2468    4.9442 C   0  0  0  0  0  0  0  0  0  0  0  0
    7.1138   14.1795    3.7672 C   0  0  0  0  0  0  0  0  0  0  0  0
    7.9876   14.9926    3.2294 C   0  0  0  0  0  0  0  0  0  0  0  0
    8.5082   14.6889    1.9195 C   0  0  0  0  0  0  0  0  0  0  0  0
    9.5544   15.2632    1.5317 O   0  0  0  0  0  0  0  0  0  0  0  0
    7.8732   13.7234    0.9854 C   0  0  0  0  0  0  0  0  0  0  0  0
    6.5969   13.1513    1.5587 C   0  0  0  0  0  0  0  0  0  0  0  0
    6.6589   12.9491    3.0337 C   0  0  1  0  0  0  0  0  0  0  0  0
    7.5259   11.8115    3.4578 C   0  0  0  0  0  0  0  0  0  0  0  0
    5.2275   12.6993    3.5274 C   0  0  1  0  0  0  0  0  0  0  0  0
    4.5468   11.7751    2.5669 C   0  0  0  0  0  0  0  0  0  0  0  0
    3.1704   12.2191    2.2206 C   0  0  0  0  0  0  0  0  0  0  0  0
    2.2674   11.4357    2.4094 O   0  0  0  0  0  0  0  0  0  0  0  0
  1  2  1  0
  2  3  2  0
  2  4  1  0
  4  5  1  0
  5  6  1  0
  6  7  2  0
  5  8  1  0
  8  9  1  0
  9 10  1  0
 11 10  1  1
 11 12  1  0
 12 13  1  0
 13 14  1  6
 13 15  1  0
 15 16  2  0
 16 17  1  0
 17 18  2  0
 17 19  1  0
 19 20  1  0
 20 21  1  0
 21 22  1  6
 21 23  1  0
 23 24  1  6
 24 25  1  0
 25 26  2  0
 23 11  1  0
 21 15  1  0
M  RAD  2   5   2  10   2
M  END
>  <docking_score>  (2) 
-3.871

$$$$

     RDKit          3D

 26 27  0  0  0  0  0  0  0  0999 V2000
   20.1945   -9.0753   -8.0028 C   0  0  0  0  0  0  0  0  0  0  0  0
   19.4965   -7.7846   -7.7377 C   0  0  0  0  0  0  0  0  0  0  0  0
   19.6841   -6.8707   -8.5954 O   0  0  0  0  0  0  0  0  0  0  0  0
   18.6936   -7.5809   -6.6335 O   0  0  0  0  0  0  0  0  0  0  0  0
   18.6302   -8.5192   -5.5936 C   0  0  0  0  0  3  0  0  0  0  0  0
   17.2268   -8.9279   -5.3907 C   0  0  0  0  0  0  0  0  0  0  0  0
   16.8857  -10.1088   -5.2888 O   0  0  0  0  0  0  0  0  0  0  0  0
   19.2204   -8.0469   -4.3048 C   0  0  0  0  0  0  0  0  0  0  0  0
   18.4390   -6.8547   -3.7661 C   0  0  0  0  0  0  0  0  0  0  0  0
   18.8858   -5.5707   -4.4187 C   0  0  0  0  0  3  0  0  0  0  0  0
   18.0416   -4.4463   -3.8569 C   0  0  2  0  0  0  0  0  0  0  0  0
   16.7025   -5.0259   -3.4715 C   0  0  0  0  0  0  0  0  0  0  0  0
   15.6354   -4.7949   -4.4922 C   0  0  2  0  0  0  0  0  0  0  0  0
   15.9610   -5.4178   -5.8368 C   0  0  0  0  0  0  0  0  0  0  0  0
   15.4441   -3.3278   -4.6952 C   0  0  0  0  0  0  0  0  0  0  0  0
   14.2987   -2.7782   -5.0114 C   0  0  0  0  0  0  0  0  0  0  0  0
   14.2356   -1.3478   -5.1818 C   0  0  0  0  0  0  0  0  0  0  0  0
   13.1156   -0.7818   -5.1689 O   0  0  0  0  0  0  0  0  0  0  0  0
   15.4324   -0.4886   -5.3749 C   0  0  0  0  0  0  0  0  0  0  0  0
   16.7027   -1.3065   -5.4246 C   0  0  0  0  0  0  0  0  0  0  0  0
   16.6745   -2.4842   -4.5123 C   0  0  1  0  0  0  0  0  0  0  0  0
   16.7863   -2.1383   -3.0654 C   0  0  0  0  0  0  0  0  0  0  0  0
   17.8440   -3.3988   -4.9005 C   0  0  1  0  0  0  0  0  0  0  0  0
   19.0480   -2.5484   -5.1598 C   0  0  0  0  0  0  0  0  0  0  0  0
   19.4975   -2.6062   -6.5762 C   0  0  0  0  0  0  0  0  0  0  0  0
   19.7338   -3.6978   -7.0425 O   0  0  0  0  0  0  0  0  0  0  0  0
  1  2  1  0
  2  3  2  0
  2  4  1  0
  4  5  1  0
  5  6  1  0
  6  7  2  0
  5  8  1  0
  8  9  1  0
  9 10  1  0
 11 10  1  6
 11 12  1  0
 12 13  1  0
 13 14  1  6
 13 15  1  0
 15 16  2  0
 16 17  1  0
 17 18  2  0
 17 19  1  0
 19 20  1  0
 20 21  1  0
 21 22  1  1
 21 23  1  0
 23 24  1  1
 24 25  1  0
 25 26  2  0
 23 11  1  0
 21 15  1  0
M  RAD  2   5   2  10   2
M  END
>  <docking_score>  (3) 
-3.7669999999999999

$$$$
