
     RDKit          3D

  6  5  0  0  0  0  0  0  0  0999 V2000
  136.4372  118.4749  138.8538 Br  0  0  0  0  0  0  0  0  0  0  0  0
  137.0234  119.8743  139.9621 N   0  0  0  0  0  2  0  0  0  0  0  0
  136.6949  121.1638  139.4135 C   0  0  0  0  0  3  0  0  0  0  0  0
  135.4598  121.9333  140.4791 S   0  0  0  0  0  0  0  0  0  0  0  0
  133.7771  121.3562  140.0756 C   0  0  0  0  0  0  0  0  0  0  0  0
  133.0732  122.4814  139.6611 F   0  0  0  0  0  0  0  0  0  0  0  0
  1  2  1  0
  2  3  1  0
  3  4  1  0
  4  5  1  0
  5  6  1  0
M  CHG  1   2   1
M  RAD  2   2   3   3   2
M  END
>  <docking_score>  (1) 
-2.8620000000000001

$$$$

     RDKit          3D

  6  5  0  0  0  0  0  0  0  0999 V2000
  138.1654  119.1399  139.1671 Br  0  0  0  0  0  0  0  0  0  0  0  0
  136.4919  118.2935  139.0522 N   0  0  0  0  0  2  0  0  0  0  0  0
  135.5721  119.0375  138.2324 C   0  0  0  0  0  3  0  0  0  0  0  0
  135.6516  120.7710  138.7240 S   0  0  0  0  0  0  0  0  0  0  0  0
  134.2824  121.2101  139.8465 C   0  0  0  0  0  0  0  0  0  0  0  0
  134.8635  121.4522  141.0863 F   0  0  0  0  0  0  0  0  0  0  0  0
  1  2  1  0
  2  3  1  0
  3  4  1  0
  4  5  1  0
  5  6  1  0
M  CHG  1   2   1
M  RAD  2   2   3   3   2
M  END
>  <docking_score>  (2) 
-2.8050000000000002

$$$$

     RDKit          3D

  6  5  0  0  0  0  0  0  0  0999 V2000
  136.1331  118.8418  137.1242 Br  0  0  0  0  0  0  0  0  0  0  0  0
  137.0927  118.6943  138.7329 N   0  0  0  0  0  2  0  0  0  0  0  0
  136.8430  119.8093  139.6081 C   0  0  0  0  0  3  0  0  0  0  0  0
  135.4289  120.7263  138.9659 S   0  0  0  0  0  0  0  0  0  0  0  0
  134.4366  121.4526  140.3132 C   0  0  0  0  0  0  0  0  0  0  0  0
  133.1520  121.6083  139.8044 F   0  0  0  0  0  0  0  0  0  0  0  0
  1  2  1  0
  2  3  1  0
  3  4  1  0
  4  5  1  0
  5  6  1  0
M  CHG  1   2   1
M  RAD  2   2   3   3   2
M  END
>  <docking_score>  (3) 
-2.7770000000000001

$$$$
