
     RDKit          3D

 15 15  0  0  0  0  0  0  0  0999 V2000
   19.0946   -4.7345   -3.4956 C   0  0  0  0  0  0  0  0  0  0  0  0
   17.9792   -4.6212   -2.4510 C   0  0  1  0  0  0  0  0  0  0  0  0
   18.3632   -3.4123   -1.5958 C   0  0  0  0  0  0  0  0  0  0  0  0
   18.3793   -2.2464   -2.5782 C   0  0  2  0  0  0  0  0  0  0  0  0
   19.0401   -1.1463   -2.0925 O   0  0  0  0  0  0  0  0  0  0  0  0
   16.9319   -1.9686   -2.9075 C   0  0  2  0  0  0  0  0  0  0  0  0
   16.1996   -1.5928   -1.7815 O   0  0  0  0  0  0  0  0  0  0  0  0
   16.3157   -3.1128   -3.6157 C   0  0  1  0  0  0  0  0  0  0  0  0
   16.4630   -2.9473   -5.0018 O   0  0  0  0  0  0  0  0  0  0  0  0
   16.6953   -4.4590   -3.1576 C   0  0  1  0  0  0  0  0  0  0  0  0
   16.6714   -5.3764   -4.3079 N   0  0  0  0  0  0  0  0  0  0  0  0
   15.4162   -6.0768   -4.2970 C   0  0  0  0  0  3  0  0  0  0  0  0
   14.8860   -6.3167   -5.6391 C   0  0  0  0  0  0  0  0  0  0  0  0
   13.8891   -5.6962   -6.2024 C   0  0  0  0  0  0  0  0  0  0  0  0
   13.1564   -4.6826   -5.6016 O   0  0  0  0  0  0  0  0  0  0  0  0
  2  1  1  6
  2  3  1  0
  3  4  1  0
  4  5  1  1
  4  6  1  0
  6  7  1  1
  6  8  1  0
  8  9  1  6
  8 10  1  0
 10 11  1  6
 11 12  1  0
 12 13  1  0
 13 14  2  3
 14 15  1  0
 10  2  1  0
M  RAD  1  12   2
M  END
>  <docking_score>  (1) 
-4.1479999999999997

$$$$

     RDKit          3D

 15 15  0  0  0  0  0  0  0  0999 V2000
   15.2272   -2.3507   -6.1565 C   0  0  0  0  0  0  0  0  0  0  0  0
   14.5738   -3.0821   -4.9792 C   0  0  1  0  0  0  0  0  0  0  0  0
   13.5844   -4.0559   -5.6220 C   0  0  0  0  0  0  0  0  0  0  0  0
   14.4563   -4.9671   -6.4788 C   0  0  2  0  0  0  0  0  0  0  0  0
   13.7376   -5.6767   -7.4078 O   0  0  0  0  0  0  0  0  0  0  0  0
   15.2025   -5.8510   -5.5080 C   0  0  2  0  0  0  0  0  0  0  0  0
   14.3407   -6.6430   -4.7493 O   0  0  0  0  0  0  0  0  0  0  0  0
   16.1207   -5.0581   -4.6604 C   0  0  1  0  0  0  0  0  0  0  0  0
   17.3840   -4.9865   -5.2683 O   0  0  0  0  0  0  0  0  0  0  0  0
   15.6336   -3.7479   -4.1996 C   0  0  1  0  0  0  0  0  0  0  0  0
   16.7779   -2.8306   -4.0808 N   0  0  0  0  0  0  0  0  0  0  0  0
   16.8523   -2.3805   -2.7177 C   0  0  0  0  0  3  0  0  0  0  0  0
   18.1397   -1.7682   -2.3893 C   0  0  0  0  0  0  0  0  0  0  0  0
   19.1595   -2.3563   -1.8322 C   0  0  0  0  0  0  0  0  0  0  0  0
   19.1847   -3.6913   -1.4550 O   0  0  0  0  0  0  0  0  0  0  0  0
  2  1  1  6
  2  3  1  0
  3  4  1  0
  4  5  1  6
  4  6  1  0
  6  7  1  1
  6  8  1  0
  8  9  1  6
  8 10  1  0
 10 11  1  6
 11 12  1  0
 12 13  1  0
 13 14  2  3
 14 15  1  0
 10  2  1  0
M  RAD  1  12   2
M  END
>  <docking_score>  (2) 
-4.0090000000000003

$$$$

     RDKit          3D

 15 15  0  0  0  0  0  0  0  0999 V2000
   16.4990   -1.7921   -2.1453 C   0  0  0  0  0  0  0  0  0  0  0  0
   17.4546   -2.1006   -3.3028 C   0  0  1  0  0  0  0  0  0  0  0  0
   18.8348   -2.2145   -2.6530 C   0  0  0  0  0  0  0  0  0  0  0  0
   18.6943   -3.3734   -1.6723 C   0  0  2  0  0  0  0  0  0  0  0  0
   19.7010   -3.4110   -0.7404 O   0  0  0  0  0  0  0  0  0  0  0  0
   18.6269   -4.6213   -2.5200 C   0  0  2  0  0  0  0  0  0  0  0  0
   19.7876   -4.8103   -3.2701 O   0  0  0  0  0  0  0  0  0  0  0  0
   17.4114   -4.6290   -3.3642 C   0  0  1  0  0  0  0  0  0  0  0  0
   16.3643   -5.2680   -2.6816 O   0  0  0  0  0  0  0  0  0  0  0  0
   17.0067   -3.3439   -3.9565 C   0  0  1  0  0  0  0  0  0  0  0  0
   15.5400   -3.3143   -4.0705 N   0  0  0  0  0  0  0  0  0  0  0  0
   15.1918   -3.5572   -5.4438 C   0  0  0  0  0  3  0  0  0  0  0  0
   13.9816   -4.3658   -5.5904 C   0  0  0  0  0  0  0  0  0  0  0  0
   13.7775   -5.3057   -6.4685 C   0  0  0  0  0  0  0  0  0  0  0  0
   14.7018   -5.6979   -7.4261 O   0  0  0  0  0  0  0  0  0  0  0  0
  2  1  1  1
  2  3  1  0
  3  4  1  0
  4  5  1  1
  4  6  1  0
  6  7  1  6
  6  8  1  0
  8  9  1  1
  8 10  1  0
 10 11  1  1
 11 12  1  0
 12 13  1  0
 13 14  2  3
 14 15  1  0
 10  2  1  0
M  RAD  1  12   2
M  END
>  <docking_score>  (3) 
-3.9929999999999999

$$$$
