
     RDKit          3D

 11 10  0  0  0  0  0  0  0  0999 V2000
   15.0066   -1.1588   -3.0920 O   0  0  0  0  0  0  0  0  0  0  0  0
   16.0890   -1.7810   -2.5031 C   0  0  0  0  0  0  0  0  0  0  0  0
   16.4828   -3.0845   -3.1066 C   0  0  0  0  0  3  0  0  0  0  0  0
   17.1203   -3.0043   -4.3871 N   0  0  0  0  0  0  0  0  0  0  0  0
   16.2102   -3.5397   -5.3731 C   0  0  2  0  0  0  0  0  0  0  0  0
   15.7996   -2.4631   -6.3175 C   0  0  0  0  0  0  0  0  0  0  0  0
   15.1894   -4.2881   -4.8434 O   0  0  0  0  0  0  0  0  0  0  0  0
   15.1161   -5.5446   -5.4312 C   0  0  1  0  0  0  0  0  0  0  0  0
   15.0316   -6.5313   -4.4303 O   0  0  0  0  0  0  0  0  0  0  0  0
   13.8608   -5.6196   -6.2958 C   0  0  0  0  0  3  0  0  0  0  0  0
   12.8382   -4.8520   -5.7182 O   0  0  0  0  0  0  0  0  0  0  0  0
  1  2  1  0
  2  3  1  0
  3  4  1  0
  4  5  1  0
  5  6  1  1
  5  7  1  0
  7  8  1  0
  8  9  1  1
  8 10  1  0
 10 11  1  0
M  RAD  2   3   2  10   2
M  END
>  <docking_score>  (1) 
-2.7000000000000002

$$$$

     RDKit          3D

 11 10  0  0  0  0  0  0  0  0999 V2000
   17.6124    6.1909   -5.4986 O   0  0  0  0  0  0  0  0  0  0  0  0
   18.9465    5.8994   -5.7010 C   0  0  0  0  0  0  0  0  0  0  0  0
   19.8897    6.5130   -4.7252 C   0  0  0  0  0  3  0  0  0  0  0  0
   19.4317    6.5577   -3.3685 N   0  0  0  0  0  0  0  0  0  0  0  0
   20.2867    7.4649   -2.6384 C   0  0  2  0  0  0  0  0  0  0  0  0
   21.3533    6.6977   -1.9361 C   0  0  0  0  0  0  0  0  0  0  0  0
   19.6074    8.3782   -1.8719 O   0  0  0  0  0  0  0  0  0  0  0  0
   20.3952    9.4821   -1.5709 C   0  0  1  0  0  0  0  0  0  0  0  0
   19.6800   10.6632   -1.8463 O   0  0  0  0  0  0  0  0  0  0  0  0
   20.7422    9.4584   -0.0849 C   0  0  0  0  0  3  0  0  0  0  0  0
   21.2079   10.7198    0.3154 O   0  0  0  0  0  0  0  0  0  0  0  0
  1  2  1  0
  2  3  1  0
  3  4  1  0
  4  5  1  0
  5  6  1  1
  5  7  1  0
  7  8  1  0
  8  9  1  1
  8 10  1  0
 10 11  1  0
M  RAD  2   3   2  10   2
M  END
>  <docking_score>  (2) 
-2.6789999999999998

$$$$

     RDKit          3D

 11 10  0  0  0  0  0  0  0  0999 V2000
   14.6063   -7.1554   -4.6498 O   0  0  0  0  0  0  0  0  0  0  0  0
   15.4027   -6.0408   -4.4794 C   0  0  0  0  0  0  0  0  0  0  0  0
   14.9940   -4.8386   -5.2580 C   0  0  0  0  0  3  0  0  0  0  0  0
   15.9408   -3.7634   -5.2755 N   0  0  0  0  0  0  0  0  0  0  0  0
   15.3516   -2.6387   -4.5863 C   0  0  2  0  0  0  0  0  0  0  0  0
   15.6031   -1.3879   -5.3556 C   0  0  0  0  0  0  0  0  0  0  0  0
   15.6498   -2.5846   -3.2480 O   0  0  0  0  0  0  0  0  0  0  0  0
   17.0074   -2.7674   -3.0173 C   0  0  1  0  0  0  0  0  0  0  0  0
   17.5647   -1.5801   -2.5054 O   0  0  0  0  0  0  0  0  0  0  0  0
   17.1943   -3.8769   -1.9861 C   0  0  0  0  0  3  0  0  0  0  0  0
   18.5255   -4.3196   -1.9990 O   0  0  0  0  0  0  0  0  0  0  0  0
  1  2  1  0
  2  3  1  0
  3  4  1  0
  4  5  1  0
  5  6  1  6
  5  7  1  0
  7  8  1  0
  8  9  1  1
  8 10  1  0
 10 11  1  0
M  RAD  2   3   2  10   2
M  END
>  <docking_score>  (3) 
-2.6560000000000001

$$$$
