
     RDKit          3D

 46 46  0  0  0  0  0  0  0  0999 V2000
   10.7545   14.7108    3.2975 C   0  0  0  0  0  0  0  0  0  0  0  0
   10.0341   14.5289    4.6184 C   0  0  0  0  0  0  0  0  0  0  0  0
   11.0724   14.2441    5.6799 C   0  0  0  0  0  0  0  0  0  0  0  0
    9.3194   15.8021    5.0074 C   0  0  0  0  0  0  0  0  0  0  0  0
    9.0696   13.3618    4.5223 C   0  0  0  0  0  0  0  0  0  0  0  0
    7.9085   13.7567    3.6370 C   0  0  0  0  0  0  0  0  0  0  0  0
    7.1512   14.8562    4.2640 C   0  0  1  0  0  0  0  0  0  0  0  0
    6.7567   16.0013    3.4335 C   0  0  0  0  0  0  0  0  0  0  0  0
    7.0835   15.9227    1.9800 C   0  0  0  0  0  0  0  0  0  0  0  0
    6.5712   14.5939    1.4443 C   0  0  0  0  0  0  0  0  0  0  0  0
    6.4413   14.5887    5.5192 C   0  0  0  0  0  0  0  0  0  0  0  0
    7.3144   14.7065    6.7231 C   0  0  0  0  0  0  0  0  0  0  0  0
    7.7319   13.3716    7.2043 C   0  0  0  0  0  0  0  0  0  0  0  0
    7.3404   12.9526    8.5320 C   0  0  1  0  0  0  0  0  0  0  0  0
    6.9086   11.6732    8.6687 O   0  0  0  0  0  0  0  0  0  0  0  0
    7.8660   13.5568    9.7379 C   0  0  0  0  0  0  0  0  0  0  0  0
    7.9898   15.0590    9.7281 C   0  0  0  0  0  0  0  0  0  0  0  0
    7.1450   15.7317   10.7632 C   0  0  0  0  0  2  0  0  0  0  0  0
    5.7694   15.0864   10.7669 C   0  0  0  0  0  0  0  0  0  0  0  0
    4.7439   16.0677   11.3226 C   0  0  0  0  0  0  0  0  0  0  0  0
    3.4570   15.3498   11.6724 C   0  0  0  0  0  3  0  0  0  0  0  0
    3.8278   14.2079   12.6255 C   0  0  0  0  0  0  0  0  0  0  0  0
    5.3126   14.2784   12.9023 C   0  0  0  0  0  0  0  0  0  0  0  0
    6.1169   13.9213   11.6525 C   0  0  0  0  0  0  0  0  0  0  0  0
    5.1858   14.0914   10.4573 C   0  0  0  0  0  3  0  0  0  0  0  0
    4.6913   12.7410   10.0102 C   0  0  0  0  0  0  0  0  0  0  0  0
    4.9610   11.6761   10.7654 C   0  0  0  0  0  0  0  0  0  0  0  0
    4.5073   10.3267   10.3866 C   0  0  0  0  0  0  0  0  0  0  0  0
    3.0340   10.1785   10.5524 C   0  0  0  0  0  0  0  0  0  0  0  0
    2.2667   10.6468    9.6636 N   0  0  0  0  0  3  0  0  0  0  0  0
    2.6536   11.3238    8.4801 C   0  0  1  0  0  0  0  0  0  0  0  0
    3.9672   11.4536    7.9901 C   0  0  0  0  0  0  0  0  0  0  0  0
    3.0965   10.4100    7.3820 N   0  0  0  0  0  0  0  0  0  0  0  0
    2.8216    9.3579    6.4877 C   0  0  0  0  0  0  0  0  0  0  0  0
    2.5748    7.9987    7.0610 C   0  0  0  0  0  0  0  0  0  0  0  0
    2.7804    9.5442    5.2181 N   0  0  0  0  0  4  0  0  0  0  0  0
    3.0183   10.8545    4.6698 C   0  0  0  0  0  0  0  0  0  0  0  0
    2.4974    8.4509    4.3159 C   0  0  0  0  0  0  0  0  0  0  0  0
    2.9686    8.8379    2.9241 C   0  0  0  0  0  0  0  0  0  0  0  0
    4.4312    8.6522    2.7854 C   0  0  0  0  0  0  0  0  0  0  0  0
    5.1544    9.6318    2.3952 N   0  0  0  0  0  4  0  0  0  0  0  0
    4.5906   10.8937    2.0912 C   0  0  0  0  0  0  0  0  0  0  0  0
    6.5656    9.4099    2.2740 C   0  0  0  0  0  0  0  0  0  0  0  0
    7.1680    8.9948    3.5557 C   0  0  0  0  0  0  0  0  0  0  0  0
    6.5776    9.0382    4.6579 N   0  0  0  0  0  4  0  0  0  0  0  0
    5.8202    8.8347    5.6181 N   0  0  0  0  0  2  0  0  0  0  0  0
  1  2  1  0
  2  3  1  0
  2  4  1  0
  2  5  1  0
  5  6  1  0
  7  6  1  6
  7  8  1  0
  8  9  1  0
  9 10  1  0
  7 11  1  0
 11 12  1  0
 12 13  1  0
 13 14  1  0
 14 15  1  1
 14 16  1  0
 16 17  1  0
 17 18  1  0
 18 19  1  0
 19 20  1  0
 20 21  1  0
 21 22  1  0
 22 23  1  0
 23 24  1  0
 24 25  1  0
 25 26  1  0
 26 27  2  3
 27 28  1  0
 28 29  1  0
 29 30  2  3
 30 31  1  0
 31 32  1  1
 31 33  1  0
 33 34  1  0
 34 35  1  0
 34 36  2  3
 36 37  1  0
 36 38  1  0
 38 39  1  0
 39 40  1  0
 40 41  2  3
 41 42  1  0
 41 43  1  0
 43 44  1  0
 44 45  2  0
 45 46  2  0
 33 32  1  0
M  CHG  5  30   1  36   1  41   1  45   1  46  -1
M  RAD  4  18   3  21   2  25   2  30   2
M  END
>  <docking_score>  (1) 
8.8190000000000008

$$$$

     RDKit          3D

 46 46  0  0  0  0  0  0  0  0999 V2000
   18.7749   -0.0963   -1.6022 C   0  0  0  0  0  0  0  0  0  0  0  0
   20.2185   -0.3590   -1.9813 C   0  0  0  0  0  0  0  0  0  0  0  0
   20.2648   -0.6515   -3.4640 C   0  0  0  0  0  0  0  0  0  0  0  0
   21.0601    0.8708   -1.7311 C   0  0  0  0  0  0  0  0  0  0  0  0
   20.7443   -1.5542   -1.2090 C   0  0  0  0  0  0  0  0  0  0  0  0
   19.5777   -2.4266   -0.8014 C   0  0  0  0  0  0  0  0  0  0  0  0
   19.1976   -3.3101   -1.9195 C   0  0  1  0  0  0  0  0  0  0  0  0
   18.1507   -2.8609   -2.8461 C   0  0  0  0  0  0  0  0  0  0  0  0
   16.8046   -2.5926   -2.2615 C   0  0  0  0  0  0  0  0  0  0  0  0
   15.8271   -2.3459   -3.4011 C   0  0  0  0  0  0  0  0  0  0  0  0
   20.1400   -4.3536   -2.3369 C   0  0  0  0  0  0  0  0  0  0  0  0
   19.4984   -5.6901   -2.5041 C   0  0  0  0  0  0  0  0  0  0  0  0
   19.3441   -6.0254   -3.9364 C   0  0  0  0  0  0  0  0  0  0  0  0
   19.7856   -5.0714   -4.9297 C   0  0  1  0  0  0  0  0  0  0  0  0
   21.1122   -4.7858   -4.9582 O   0  0  0  0  0  0  0  0  0  0  0  0
   19.0798   -4.8412   -6.1724 C   0  0  0  0  0  0  0  0  0  0  0  0
   19.1874   -3.4530   -6.7497 C   0  0  0  0  0  0  0  0  0  0  0  0
   19.1155   -2.3729   -5.7173 C   0  0  0  0  0  2  0  0  0  0  0  0
   17.6664   -1.9455   -5.5565 C   0  0  0  0  0  0  0  0  0  0  0  0
   17.1718   -1.3114   -6.8514 C   0  0  0  0  0  0  0  0  0  0  0  0
   16.2863   -2.2770   -7.6112 C   0  0  0  0  0  3  0  0  0  0  0  0
   15.8291   -3.3449   -6.6110 C   0  0  0  0  0  0  0  0  0  0  0  0
   14.9322   -4.3247   -7.3334 C   0  0  0  0  0  0  0  0  0  0  0  0
   14.6215   -5.5322   -6.4492 C   0  0  0  0  0  0  0  0  0  0  0  0
   13.6117   -5.0732   -5.4033 C   0  0  0  0  0  3  0  0  0  0  0  0
   12.8893   -3.8510   -5.9057 C   0  0  0  0  0  0  0  0  0  0  0  0
   11.6422   -3.6268   -5.4916 C   0  0  0  0  0  0  0  0  0  0  0  0
   10.8787   -2.4508   -5.9439 C   0  0  0  0  0  0  0  0  0  0  0  0
    9.9372   -1.9727   -4.8926 C   0  0  0  0  0  0  0  0  0  0  0  0
    8.8097   -1.5188   -5.2398 N   0  0  0  0  0  3  0  0  0  0  0  0
    8.3119   -1.4045   -6.5618 C   0  0  1  0  0  0  0  0  0  0  0  0
    7.1439   -2.0098   -7.0639 C   0  0  0  0  0  0  0  0  0  0  0  0
    7.0708   -0.5763   -6.6676 N   0  0  0  0  0  0  0  0  0  0  0  0
    6.4091    0.6541   -6.4933 C   0  0  0  0  0  0  0  0  0  0  0  0
    5.6245    1.1961   -7.6456 C   0  0  0  0  0  0  0  0  0  0  0  0
    6.4679    1.3015   -5.3862 N   0  0  0  0  0  4  0  0  0  0  0  0
    7.2241    0.7763   -4.2788 C   0  0  0  0  0  0  0  0  0  0  0  0
    5.7822    2.5640   -5.2269 C   0  0  0  0  0  0  0  0  0  0  0  0
    6.6963    3.5199   -4.4787 C   0  0  0  0  0  0  0  0  0  0  0  0
    6.9232    3.0626   -3.0887 C   0  0  0  0  0  0  0  0  0  0  0  0
    7.7546    3.6916   -2.3485 N   0  0  0  0  0  4  0  0  0  0  0  0
    8.4662    4.8180   -2.8255 C   0  0  0  0  0  0  0  0  0  0  0  0
    7.9451    3.2161   -1.0094 C   0  0  0  0  0  0  0  0  0  0  0  0
    7.7247    4.2814   -0.0122 C   0  0  0  0  0  0  0  0  0  0  0  0
    7.5214    5.4823   -0.2981 N   0  0  0  0  0  4  0  0  0  0  0  0
    7.0332    6.5530   -0.6884 N   0  0  0  0  0  2  0  0  0  0  0  0
  1  2  1  0
  2  3  1  0
  2  4  1  0
  2  5  1  0
  5  6  1  0
  7  6  1  6
  7  8  1  0
  8  9  1  0
  9 10  1  0
  7 11  1  0
 11 12  1  0
 12 13  1  0
 13 14  1  0
 14 15  1  6
 14 16  1  0
 16 17  1  0
 17 18  1  0
 18 19  1  0
 19 20  1  0
 20 21  1  0
 21 22  1  0
 22 23  1  0
 23 24  1  0
 24 25  1  0
 25 26  1  0
 26 27  2  3
 27 28  1  0
 28 29  1  0
 29 30  2  3
 30 31  1  0
 31 32  1  1
 31 33  1  0
 33 34  1  0
 34 35  1  0
 34 36  2  3
 36 37  1  0
 36 38  1  0
 38 39  1  0
 39 40  1  0
 40 41  2  3
 41 42  1  0
 41 43  1  0
 43 44  1  0
 44 45  2  0
 45 46  2  0
 33 32  1  0
M  CHG  5  30   1  36   1  41   1  45   1  46  -1
M  RAD  4  18   3  21   2  25   2  30   2
M  END
>  <docking_score>  (2) 
10.647

$$$$
