
     RDKit          3D

 24 25  0  0  0  0  0  0  0  0999 V2000
   18.6385   -3.5165   -1.5273 C   0  0  0  0  0  0  0  0  0  0  0  0
   17.3354   -3.9357   -2.2649 C   0  0  0  0  0  0  0  0  0  0  0  0
   16.3894   -4.4469   -1.1523 C   0  0  0  0  0  0  0  0  0  0  0  0
   16.7381   -2.6432   -2.7543 C   0  0  0  0  0  0  0  0  0  0  0  0
   15.6495   -2.8315   -3.7285 C   0  0  0  0  0  0  0  0  0  0  0  0
   14.9759   -1.5870   -4.1240 C   0  0  0  0  0  0  0  0  0  0  0  0
   14.9625   -1.2507   -5.5719 C   0  0  1  0  0  0  0  0  0  0  0  0
   14.1729    0.0126   -5.8168 C   0  0  0  0  0  0  0  0  0  0  0  0
   16.3281   -1.2078   -6.1848 C   0  0  0  0  0  3  0  0  0  0  0  0
   16.4026   -2.2692   -7.2615 C   0  0  0  0  0  0  0  0  0  0  0  0
   17.1959   -3.4455   -6.7821 C   0  0  0  0  0  0  0  0  0  0  0  0
   17.1014   -4.6438   -7.6941 C   0  0  1  0  0  0  0  0  0  0  0  0
   18.5395   -5.0247   -8.0547 C   0  0  0  0  0  0  0  0  0  0  0  0
   16.4465   -5.8295   -7.0451 C   0  0  0  0  0  0  0  0  0  0  0  0
   17.4747   -6.7465   -6.4498 C   0  0  2  0  0  0  0  0  0  0  0  0
   17.6075   -8.0550   -7.1546 C   0  0  0  0  0  0  0  0  0  0  0  0
   17.3849   -6.8455   -4.9667 C   0  0  0  0  0  0  0  0  0  0  0  0
   18.6945   -6.6898   -4.2593 C   0  0  1  0  0  0  0  0  0  0  0  0
   19.8300   -7.5185   -4.7924 C   0  0  2  0  0  0  0  0  0  0  0  0
   20.4201   -8.3829   -3.8601 O   0  0  0  0  0  0  0  0  0  0  0  0
   20.6681   -6.2360   -4.8450 C   0  0  0  0  0  0  0  0  0  0  0  0
   19.4159   -5.4222   -4.5662 C   0  0  1  0  0  0  0  0  0  0  0  0
   18.9510   -4.7256   -5.8035 C   0  0  0  0  0  0  0  0  0  0  0  0
   19.2617   -5.4283   -6.9510 O   0  0  0  0  0  0  0  0  0  0  0  0
  1  2  1  0
  2  3  1  0
  2  4  1  0
  4  5  1  0
  5  6  1  0
  6  7  1  0
  7  8  1  1
  7  9  1  0
  9 10  1  0
 10 11  1  0
 12 11  1  1
 12 13  1  0
 12 14  1  0
 14 15  1  0
 15 16  1  6
 15 17  1  0
 18 17  1  6
 18 19  1  0
 19 20  1  1
 19 21  1  0
 22 21  1  6
 22 23  1  0
 23 24  1  0
 24 13  1  0
 22 18  1  0
M  RAD  1   9   2
M  END
>  <docking_score>  (1) 
-4.3159999999999998

$$$$

     RDKit          3D

 24 25  0  0  0  0  0  0  0  0999 V2000
    9.4163   15.1589    1.4535 C   0  0  0  0  0  0  0  0  0  0  0  0
    9.8757   14.7405    2.8789 C   0  0  0  0  0  0  0  0  0  0  0  0
    9.6061   15.9775    3.7683 C   0  0  0  0  0  0  0  0  0  0  0  0
    8.8821   13.6954    3.3115 C   0  0  0  0  0  0  0  0  0  0  0  0
    7.4917   14.0228    2.9523 C   0  0  0  0  0  0  0  0  0  0  0  0
    6.5295   13.8392    4.0474 C   0  0  0  0  0  0  0  0  0  0  0  0
    5.2215   13.2201    3.7077 C   0  0  1  0  0  0  0  0  0  0  0  0
    4.0827   14.0713    4.2155 C   0  0  0  0  0  0  0  0  0  0  0  0
    5.0853   12.8770    2.2565 C   0  0  0  0  0  3  0  0  0  0  0  0
    4.1455   11.6971    2.1302 C   0  0  0  0  0  0  0  0  0  0  0  0
    4.2245   10.8326    3.3506 C   0  0  0  0  0  0  0  0  0  0  0  0
    5.0997    9.6171    3.1683 C   0  0  1  0  0  0  0  0  0  0  0  0
    5.9528    9.5074    4.4346 C   0  0  0  0  0  0  0  0  0  0  0  0
    4.3175    8.3444    3.0130 C   0  0  0  0  0  0  0  0  0  0  0  0
    4.1568    7.6530    4.3355 C   0  0  2  0  0  0  0  0  0  0  0  0
    4.9215    6.3773    4.4547 C   0  0  0  0  0  0  0  0  0  0  0  0
    2.7404    7.5735    4.7882 C   0  0  0  0  0  0  0  0  0  0  0  0
    2.5244    7.9911    6.2090 C   0  0  1  0  0  0  0  0  0  0  0  0
    3.4543    7.3803    7.2203 C   0  0  2  0  0  0  0  0  0  0  0  0
    2.8237    6.6655    8.2479 O   0  0  0  0  0  0  0  0  0  0  0  0
    3.7368    8.7968    7.7338 C   0  0  0  0  0  0  0  0  0  0  0  0
    3.0055    9.3649    6.5295 C   0  0  1  0  0  0  0  0  0  0  0  0
    3.9727    9.9316    5.5418 C   0  0  0  0  0  0  0  0  0  0  0  0
    5.1869    9.2738    5.5577 O   0  0  0  0  0  0  0  0  0  0  0  0
  1  2  1  0
  2  3  1  0
  2  4  1  0
  4  5  1  0
  5  6  1  0
  6  7  1  0
  7  8  1  6
  7  9  1  0
  9 10  1  0
 10 11  1  0
 12 11  1  1
 12 13  1  0
 12 14  1  0
 14 15  1  0
 15 16  1  6
 15 17  1  0
 18 17  1  6
 18 19  1  0
 19 20  1  1
 19 21  1  0
 22 21  1  1
 22 23  1  0
 23 24  1  0
 24 13  1  0
 22 18  1  0
M  RAD  1   9   2
M  END
>  <docking_score>  (2) 
-3.9689999999999999

$$$$

     RDKit          3D

 24 25  0  0  0  0  0  0  0  0999 V2000
   15.7386   -5.4619   -8.5727 C   0  0  0  0  0  0  0  0  0  0  0  0
   14.8119   -4.4673   -7.8180 C   0  0  0  0  0  0  0  0  0  0  0  0
   13.8863   -5.3559   -6.9535 C   0  0  0  0  0  0  0  0  0  0  0  0
   15.7199   -3.7532   -6.8523 C   0  0  0  0  0  0  0  0  0  0  0  0
   15.5030   -2.2970   -6.8099 C   0  0  0  0  0  0  0  0  0  0  0  0
   14.5655   -1.8598   -5.7663 C   0  0  0  0  0  0  0  0  0  0  0  0
   15.1476   -1.3871   -4.4829 C   0  0  1  0  0  0  0  0  0  0  0  0
   14.2493   -0.3588   -3.8387 C   0  0  0  0  0  0  0  0  0  0  0  0
   15.5146   -2.5002   -3.5509 C   0  0  0  0  0  3  0  0  0  0  0  0
   16.6547   -2.0319   -2.6721 C   0  0  0  0  0  0  0  0  0  0  0  0
   17.8550   -2.9073   -2.8621 C   0  0  0  0  0  0  0  0  0  0  0  0
   18.9048   -2.2984   -3.7587 C   0  0  1  0  0  0  0  0  0  0  0  0
   20.2585   -2.7488   -3.2036 C   0  0  0  0  0  0  0  0  0  0  0  0
   18.8017   -2.7579   -5.1849 C   0  0  0  0  0  0  0  0  0  0  0  0
   19.7057   -3.9299   -5.4338 C   0  0  2  0  0  0  0  0  0  0  0  0
   20.8668   -3.6281   -6.3210 C   0  0  0  0  0  0  0  0  0  0  0  0
   18.9687   -5.1775   -5.7770 C   0  0  0  0  0  0  0  0  0  0  0  0
   19.4124   -6.3844   -5.0113 C   0  0  1  0  0  0  0  0  0  0  0  0
   20.8961   -6.6233   -4.9665 C   0  0  2  0  0  0  0  0  0  0  0  0
   21.3108   -7.8646   -5.4684 O   0  0  0  0  0  0  0  0  0  0  0  0
   20.7743   -6.7459   -3.4434 C   0  0  0  0  0  0  0  0  0  0  0  0
   19.3460   -6.2354   -3.5298 C   0  0  1  0  0  0  0  0  0  0  0  0
   19.2587   -4.8233   -3.0498 C   0  0  0  0  0  0  0  0  0  0  0  0
   20.4221   -4.1162   -3.2811 O   0  0  0  0  0  0  0  0  0  0  0  0
  1  2  1  0
  2  3  1  0
  2  4  1  0
  4  5  1  0
  5  6  1  0
  6  7  1  0
  7  8  1  1
  7  9  1  0
  9 10  1  0
 10 11  1  0
 12 11  1  1
 12 13  1  0
 12 14  1  0
 14 15  1  0
 15 16  1  6
 15 17  1  0
 18 17  1  6
 18 19  1  0
 19 20  1  6
 19 21  1  0
 22 21  1  1
 22 23  1  0
 23 24  1  0
 24 13  1  0
 22 18  1  0
M  RAD  1   9   2
M  END
>  <docking_score>  (3) 
-3.7919999999999998

$$$$
