
     RDKit          3D

 16 15  0  0  0  0  0  0  0  0999 V2000
   16.2246   -5.6593   -3.6073 C   0  0  0  0  0  0  0  0  0  0  0  0
   15.1710   -6.0813   -4.5729 C   0  0  0  0  0  0  0  0  0  0  0  0
   14.5828   -7.1766   -4.4439 O   0  0  0  0  0  0  0  0  0  0  0  0
   14.8173   -5.2734   -5.6351 O   0  0  0  0  0  0  0  0  0  0  0  0
   15.7806   -4.4171   -6.2163 C   0  0  0  0  0  3  0  0  0  0  0  0
   15.9427   -4.7405   -7.6610 C   0  0  0  0  0  0  0  0  0  0  0  0
   16.2879   -5.8789   -7.9345 O   0  0  0  0  0  0  0  0  0  0  0  0
   15.2695   -2.9948   -6.1383 C   0  0  0  0  0  0  0  0  0  0  0  0
   16.1271   -2.2378   -5.1233 C   0  0  0  0  0  0  0  0  0  0  0  0
   15.3323   -1.9612   -3.8800 C   0  0  0  0  0  0  0  0  0  0  0  0
   16.2316   -1.9476   -2.6819 C   0  0  0  0  0  3  0  0  0  0  0  0
   17.6754   -1.9576   -3.1817 C   0  0  0  0  0  0  0  0  0  0  0  0
   18.6120   -1.8058   -2.0014 C   0  0  2  0  0  0  0  0  0  0  0  0
   19.7559   -0.9041   -2.4096 C   0  0  0  0  0  0  0  0  0  0  0  0
   19.1314   -3.1489   -1.6301 C   0  0  0  0  0  0  0  0  0  0  0  0
   19.1102   -4.0639   -2.4217 O   0  0  0  0  0  0  0  0  0  0  0  0
  1  2  1  0
  2  3  2  0
  2  4  1  0
  4  5  1  0
  5  6  1  0
  6  7  2  0
  5  8  1  0
  8  9  1  0
  9 10  1  0
 10 11  1  0
 11 12  1  0
 12 13  1  0
 13 14  1  6
 13 15  1  0
 15 16  2  0
M  RAD  2   5   2  11   2
M  END
>  <docking_score>  (1) 
-3.2530000000000001

$$$$

     RDKit          3D

 16 15  0  0  0  0  0  0  0  0999 V2000
   20.0691   -2.9684   -0.8701 C   0  0  0  0  0  0  0  0  0  0  0  0
   19.8793   -2.7073   -2.3249 C   0  0  0  0  0  0  0  0  0  0  0  0
   20.8606   -2.5951   -3.0909 O   0  0  0  0  0  0  0  0  0  0  0  0
   18.6146   -2.5823   -2.8643 O   0  0  0  0  0  0  0  0  0  0  0  0
   17.4969   -3.0770   -2.1537 C   0  0  0  0  0  3  0  0  0  0  0  0
   16.3421   -2.1502   -2.3135 C   0  0  0  0  0  0  0  0  0  0  0  0
   16.2919   -1.1974   -1.5521 O   0  0  0  0  0  0  0  0  0  0  0  0
   17.0868   -4.4003   -2.7626 C   0  0  0  0  0  0  0  0  0  0  0  0
   15.8795   -4.1519   -3.6678 C   0  0  0  0  0  0  0  0  0  0  0  0
   16.1252   -4.7368   -5.0284 C   0  0  0  0  0  0  0  0  0  0  0  0
   16.7089   -3.7014   -5.9404 C   0  0  0  0  0  3  0  0  0  0  0  0
   15.5530   -3.0073   -6.6591 C   0  0  0  0  0  0  0  0  0  0  0  0
   15.7740   -1.5094   -6.6266 C   0  0  2  0  0  0  0  0  0  0  0  0
   17.0264   -1.2266   -5.8267 C   0  0  0  0  0  0  0  0  0  0  0  0
   14.6001   -0.8692   -5.9758 C   0  0  0  0  0  0  0  0  0  0  0  0
   14.3802   -1.0278   -4.7964 O   0  0  0  0  0  0  0  0  0  0  0  0
  1  2  1  0
  2  3  2  0
  2  4  1  0
  4  5  1  0
  5  6  1  0
  6  7  2  0
  5  8  1  0
  8  9  1  0
  9 10  1  0
 10 11  1  0
 11 12  1  0
 12 13  1  0
 13 14  1  1
 13 15  1  0
 15 16  2  0
M  RAD  2   5   2  11   2
M  END
>  <docking_score>  (2) 
-3.2109999999999999

$$$$

     RDKit          3D

 16 15  0  0  0  0  0  0  0  0999 V2000
   16.8297   -1.6918   -4.8726 C   0  0  0  0  0  0  0  0  0  0  0  0
   18.1428   -1.5551   -4.1813 C   0  0  0  0  0  0  0  0  0  0  0  0
   19.1713   -1.2324   -4.8139 O   0  0  0  0  0  0  0  0  0  0  0  0
   18.2571   -1.7813   -2.8242 O   0  0  0  0  0  0  0  0  0  0  0  0
   19.3915   -2.4572   -2.3189 C   0  0  0  0  0  3  0  0  0  0  0  0
   20.0743   -1.6127   -1.2997 C   0  0  0  0  0  0  0  0  0  0  0  0
   20.1876   -0.4247   -1.5561 O   0  0  0  0  0  0  0  0  0  0  0  0
   18.9283   -3.7124   -1.6117 C   0  0  0  0  0  0  0  0  0  0  0  0
   19.2075   -4.9038   -2.5290 C   0  0  0  0  0  0  0  0  0  0  0  0
   17.9358   -5.6527   -2.8043 C   0  0  0  0  0  0  0  0  0  0  0  0
   17.4496   -5.3571   -4.1902 C   0  0  0  0  0  3  0  0  0  0  0  0
   15.9234   -5.2997   -4.1473 C   0  0  0  0  0  0  0  0  0  0  0  0
   15.3598   -6.2675   -5.1667 C   0  0  2  0  0  0  0  0  0  0  0  0
   16.3801   -6.4521   -6.2681 C   0  0  0  0  0  0  0  0  0  0  0  0
   14.1068   -5.6937   -5.7256 C   0  0  0  0  0  0  0  0  0  0  0  0
   13.9554   -4.4961   -5.8102 O   0  0  0  0  0  0  0  0  0  0  0  0
  1  2  1  0
  2  3  2  0
  2  4  1  0
  4  5  1  0
  5  6  1  0
  6  7  2  0
  5  8  1  0
  8  9  1  0
  9 10  1  0
 10 11  1  0
 11 12  1  0
 12 13  1  0
 13 14  1  6
 13 15  1  0
 15 16  2  0
M  RAD  2   5   2  11   2
M  END
>  <docking_score>  (3) 
-3.1019999999999999

$$$$
