
     RDKit          3D

 66 68  0  0  0  0  0  0  0  0999 V2000
    9.0302   13.2479    5.8529 C   0  0  0  0  0  0  0  0  0  0  0  0
    9.3702   13.8124    7.2003 C   0  0  0  0  0  0  0  0  0  0  0  0
   10.4956   14.7239    6.8091 C   0  0  0  0  0  0  0  0  0  0  0  0
    9.3399   14.0770    8.6764 C   0  0  0  0  0  3  0  0  0  0  0  0
    8.9424   14.0129   10.1214 C   0  0  0  0  0  0  0  0  0  0  0  0
    8.2208   13.6270   11.3786 C   0  0  0  0  0  0  0  0  0  0  0  0
    9.3538   14.6072   11.3017 C   0  0  0  0  0  3  0  0  0  0  0  0
    9.7862   14.7044    9.8687 C   0  0  0  0  0  0  0  0  0  0  0  0
   10.2194   15.5272   12.1106 C   0  0  0  0  0  0  0  0  0  0  0  0
   10.4871   16.0358   13.4961 C   0  0  0  0  0  0  0  0  0  0  0  0
   10.0546   15.9386   14.9291 C   0  0  0  0  0  0  0  0  0  0  0  0
    9.0872   15.2727   15.8622 C   0  0  0  0  0  3  0  0  0  0  0  0
    7.9543   14.2926   15.9391 C   0  0  0  0  0  2  0  0  0  0  0  0
    7.0886   13.3725   15.1302 C   0  0  0  0  0  0  0  0  0  0  0  0
    6.8209   12.8640   13.7447 C   0  0  0  0  0  0  0  0  0  0  0  0
    7.2534   12.9612   12.3116 C   0  0  0  0  0  0  0  0  0  0  0  0
    6.1449   12.0876   12.8196 C   0  0  0  0  0  0  0  0  0  0  0  0
    5.0155   11.1009   12.8474 C   0  0  0  0  0  3  0  0  0  0  0  0
    3.9875   10.1079   12.3920 C   0  0  0  0  0  3  0  0  0  0  0  0
    3.1725    9.2164   11.5027 C   0  0  0  0  0  0  0  0  0  0  0  0
    2.2575    8.6148   12.5279 C   0  0  0  0  0  0  0  0  0  0  0  0
    2.6586    8.5229   10.2759 C   0  0  0  0  0  0  0  0  0  0  0  0
    2.5016    8.1026    8.8447 C   0  0  0  0  0  0  0  0  0  0  0  0
    2.7184    8.0009    7.3639 C   0  0  0  0  0  0  0  0  0  0  0  0
    3.2856    8.2290    5.9941 C   0  0  0  0  0  0  0  0  0  0  0  0
    2.4080    7.3025    5.2060 C   0  0  0  0  0  0  0  0  0  0  0  0
    4.1418    8.7622    4.8838 C   0  0  0  0  0  0  0  0  0  0  0  0
    5.1942    9.5425    4.1533 C   0  0  0  0  0  0  0  0  0  0  0  0
    6.3286   10.4856    3.8817 C   0  0  0  0  0  0  0  0  0  0  0  0
    7.4222   11.4891    4.0985 C   0  0  0  0  0  0  0  0  0  0  0  0
    7.9063   11.6358    2.6863 C   0  0  0  0  0  0  0  0  0  0  0  0
    8.3565   12.4444    4.7802 C   0  0  0  0  0  0  0  0  0  0  0  0
    9.1481   12.9055    3.5924 S   0  0  0  0  0  0  0  0  0  0  0  0
   10.5736   13.3395    3.7638 C   0  0  0  0  0  0  0  0  0  0  0  0
   10.8837   14.6609    4.4022 C   0  0  0  0  0  0  0  0  0  0  0  0
    5.8678   10.3460    5.2260 S   0  0  2  0  0  0  0  0  0  0  0  0
    6.8021   11.3013    5.9077 C   0  0  0  0  0  0  0  0  0  0  0  0
    7.8957   12.3048    6.1244 C   0  0  0  0  0  0  0  0  0  0  0  0
    6.3181   11.1546    7.3198 C   0  0  0  0  0  3  0  0  0  0  0  0
    6.7343   12.1495    8.3624 S   0  0  0  0  0  0  0  0  0  0  0  0
    5.7127   13.0526    8.9874 C   0  0  0  0  0  3  0  0  0  0  0  0
    4.9448   14.0193    8.1354 S   0  0  0  0  0  0  0  0  0  0  0  0
    4.5851   13.6547    6.7255 C   0  0  0  0  0  3  0  0  0  0  0  0
    3.8528   12.3760    6.4451 S   0  0  0  0  0  0  0  0  0  0  0  0
    2.6881   12.3704    5.5000 C   0  0  0  0  0  3  0  0  0  0  0  0
    2.6226   13.3710    4.3843 C   0  0  0  0  0  3  0  0  0  0  0  0
    3.4918   13.2022    3.1736 C   0  0  0  0  0  0  0  0  0  0  0  0
    3.2942   12.0235    2.2670 C   0  0  0  0  0  0  0  0  0  0  0  0
    2.6305   12.2056    0.9341 C   0  0  0  0  0  0  0  0  0  0  0  0
    3.7602   10.6630    2.6933 C   0  0  0  0  0  0  0  0  0  0  0  0
    2.9974    9.4425    2.2708 C   0  0  0  0  0  3  0  0  0  0  0  0
    3.6380    8.4345    1.3633 C   0  0  0  0  0  3  0  0  0  0  0  0
    3.4972    6.9693    1.6518 C   0  0  0  0  0  0  0  0  0  0  0  0
    4.4736    6.2872    2.5638 C   0  0  0  0  0  0  0  0  0  0  0  0
    5.5401    7.0857    3.2529 C   0  0  0  0  0  0  0  0  0  0  0  0
    5.9902    8.3939    2.6730 C   0  0  0  0  0  0  0  0  0  0  0  0
    6.1565    6.5761    4.5219 C   0  0  0  0  0  0  0  0  0  0  0  0
    6.6821    5.1728    4.5897 C   0  0  0  0  0  0  0  0  0  0  0  0
    5.9404    4.1312    5.3737 O   0  0  0  0  0  0  0  0  0  0  0  0
    5.8414    4.2449    6.8661 S   0  0  0  0  0  0  0  0  0  0  0  0
    4.7778    5.1033    7.4840 C   0  0  0  0  0  3  0  0  0  0  0  0
    4.5902    5.1104    8.9722 C   0  0  0  0  0  2  0  0  0  0  0  0
    5.0763    9.8849    6.4137 S   0  0  0  0  0  0  0  0  0  0  0  0
    3.5823   10.0199    6.4176 C   0  0  0  0  0  3  0  0  0  0  0  0
    2.9523   11.3801    6.4725 C   0  0  0  0  0  0  0  0  0  0  0  0
    3.5207   12.5035    5.6570 C   0  0  0  0  0  0  0  0  0  0  0  0
  1  2  2  3
  2  3  1  0
  2  4  1  0
  4  5  1  0
  5  6  1  0
  6  7  1  0
  7  8  1  0
  7  9  1  0
  9 10  1  0
 10 11  1  0
 11 12  1  0
 12 13  1  0
 13 14  1  0
 14 15  1  0
 16 15  1  0
 16 17  1  0
 17 18  1  0
 18 19  1  0
 19 20  1  0
 20 21  1  0
 20 22  1  0
 22 23  1  0
 23 24  1  0
 24 25  1  0
 25 26  1  0
 25 27  1  0
 28 27  1  0
 28 29  1  0
 29 30  1  0
 30 31  1  0
 30 32  1  0
 32 33  1  0
 33 34  1  0
 34 35  1  0
 28 36  1  0
 36 37  1  0
 37 38  1  0
 37 39  1  0
 39 40  1  0
 40 41  1  0
 41 42  1  0
 42 43  1  0
 43 44  1  0
 44 45  1  0
 45 46  1  0
 46 47  1  0
 47 48  1  0
 48 49  1  0
 48 50  1  0
 50 51  1  0
 51 52  1  0
 52 53  1  0
 53 54  1  0
 54 55  1  0
 55 56  1  0
 55 57  1  0
 57 58  1  0
 58 59  1  0
 59 60  1  0
 60 61  1  0
 61 62  1  0
 36 63  1  0
 63 64  1  0
 64 65  1  0
 65 66  1  0
 32  1  1  0
 38  1  1  0
 16  6  1  0
M  RAD  8   4   2   7   2  12   2  13   3  18   2  19   2  39   2  41   2
M  RAD  8  43   2  45   2  46   2  51   2  52   2  61   2  62   3  64   2
M  END
>  <docking_score>  (1) 
26.175999999999998

$$$$
