
     RDKit          3D

 23 25  0  0  0  0  0  0  0  0999 V2000
   13.5769   -0.1424   -4.5377 C   0  0  0  0  0  0  0  0  0  0  0  0
   14.1590   -1.2386   -5.3636 C   0  0  1  0  0  0  0  0  0  0  0  0
   15.3053   -0.7313   -6.1858 C   0  0  0  0  0  0  0  0  0  0  0  0
   16.0379   -1.7813   -6.9416 C   0  0  2  0  0  0  0  0  0  0  0  0
   15.4658   -2.1039   -8.1599 O   0  0  0  0  0  0  0  0  0  0  0  0
   16.3195   -2.9795   -6.0820 C   0  0  2  0  0  0  0  0  0  0  0  0
   17.1144   -3.9244   -6.6554 O   0  0  0  0  0  0  0  0  0  0  0  0
   15.0366   -3.4822   -5.5052 C   0  0  1  0  0  0  0  0  0  0  0  0
   15.0854   -4.7402   -4.9807 O   0  0  0  0  0  0  0  0  0  0  0  0
   14.5573   -2.4334   -4.4966 C   0  0  1  0  0  0  0  0  0  0  0  0
   15.5778   -2.0924   -3.6047 O   0  0  0  0  0  0  0  0  0  0  0  0
   16.7093   -2.8361   -3.7386 C   0  0  1  0  0  0  0  0  0  0  0  0
   17.9934   -2.0749   -3.6367 C   0  0  1  0  0  0  0  0  0  0  0  0
   18.3106   -1.6822   -2.1972 C   0  0  0  0  0  0  0  0  0  0  0  0
   19.0242   -2.9629   -4.0161 O   0  0  0  0  0  0  0  0  0  0  0  0
   18.9895   -3.1501   -5.3731 C   0  0  0  0  0  3  0  0  0  0  0  0
   18.1986   -4.3125   -5.8415 C   0  0  1  0  0  0  0  0  0  0  0  0
   17.7877   -5.2879   -4.8136 C   0  0  1  0  0  0  0  0  0  0  0  0
   18.3614   -6.5316   -5.0782 O   0  0  0  0  0  0  0  0  0  0  0  0
   17.9667   -4.8813   -3.4010 C   0  0  2  0  0  0  0  0  0  0  0  0
   18.0086   -6.0426   -2.6143 O   0  0  0  0  0  0  0  0  0  0  0  0
   16.7930   -4.0465   -2.8684 C   0  0  1  0  0  0  0  0  0  0  0  0
   17.1985   -3.6233   -1.5890 O   0  0  0  0  0  0  0  0  0  0  0  0
  2  1  1  1
  2  3  1  0
  3  4  1  0
  4  5  1  6
  4  6  1  0
  6  7  1  6
  6  8  1  0
  8  9  1  1
  8 10  1  0
 10 11  1  1
 12 11  1  1
 12 13  1  0
 13 14  1  1
 13 15  1  0
 15 16  1  0
 17 16  1  1
 17 18  1  0
 18 19  1  6
 18 20  1  0
 20 21  1  1
 20 22  1  0
 22 23  1  1
 10  2  1  0
 17  7  1  0
 22 12  1  0
M  RAD  1  16   2
M  END
>  <docking_score>  (1) 
-6.3490000000000002

$$$$

     RDKit          3D

 23 25  0  0  0  0  0  0  0  0999 V2000
   13.1967   -5.3918   -7.4651 C   0  0  0  0  0  0  0  0  0  0  0  0
   14.5173   -5.5975   -6.8045 C   0  0  1  0  0  0  0  0  0  0  0  0
   15.6345   -5.1748   -7.7103 C   0  0  0  0  0  0  0  0  0  0  0  0
   16.9847   -5.2153   -7.0890 C   0  0  2  0  0  0  0  0  0  0  0  0
   17.5876   -6.4605   -7.1277 O   0  0  0  0  0  0  0  0  0  0  0  0
   16.9759   -4.6021   -5.7187 C   0  0  2  0  0  0  0  0  0  0  0  0
   18.2014   -4.4672   -5.1413 O   0  0  0  0  0  0  0  0  0  0  0  0
   15.9426   -5.2835   -4.8826 C   0  0  1  0  0  0  0  0  0  0  0  0
   16.0423   -5.0673   -3.5397 O   0  0  0  0  0  0  0  0  0  0  0  0
   14.5754   -4.8896   -5.4505 C   0  0  1  0  0  0  0  0  0  0  0  0
   14.4751   -3.5038   -5.6003 O   0  0  0  0  0  0  0  0  0  0  0  0
   15.5355   -2.8096   -5.1053 C   0  0  1  0  0  0  0  0  0  0  0  0
   16.0065   -1.6684   -5.9508 C   0  0  1  0  0  0  0  0  0  0  0  0
   15.0651   -0.4709   -5.8678 C   0  0  0  0  0  0  0  0  0  0  0  0
   17.2249   -1.2235   -5.3918 O   0  0  0  0  0  0  0  0  0  0  0  0
   18.2149   -2.1275   -5.6756 C   0  0  0  0  0  3  0  0  0  0  0  0
   18.4477   -3.1694   -4.6479 C   0  0  1  0  0  0  0  0  0  0  0  0
   17.8101   -2.9546   -3.3347 C   0  0  1  0  0  0  0  0  0  0  0  0
   18.7848   -2.8309   -2.3444 O   0  0  0  0  0  0  0  0  0  0  0  0
   16.7960   -1.8785   -3.2554 C   0  0  2  0  0  0  0  0  0  0  0  0
   16.6749   -1.4906   -1.9122 O   0  0  0  0  0  0  0  0  0  0  0  0
   15.3994   -2.3429   -3.6936 C   0  0  1  0  0  0  0  0  0  0  0  0
   14.6146   -1.1749   -3.7054 O   0  0  0  0  0  0  0  0  0  0  0  0
  2  1  1  6
  2  3  1  0
  3  4  1  0
  4  5  1  1
  4  6  1  0
  6  7  1  1
  6  8  1  0
  8  9  1  1
  8 10  1  0
 10 11  1  6
 12 11  1  6
 12 13  1  0
 13 14  1  1
 13 15  1  0
 15 16  1  0
 17 16  1  6
 17 18  1  0
 18 19  1  1
 18 20  1  0
 20 21  1  1
 20 22  1  0
 22 23  1  6
 10  2  1  0
 17  7  1  0
 22 12  1  0
M  RAD  1  16   2
M  END
>  <docking_score>  (2) 
-6.0780000000000003

$$$$

     RDKit          3D

 23 25  0  0  0  0  0  0  0  0999 V2000
   20.0460   -3.4640   -1.3875 C   0  0  0  0  0  0  0  0  0  0  0  0
   18.5863   -3.2965   -1.6405 C   0  0  1  0  0  0  0  0  0  0  0  0
   18.3002   -1.9415   -2.2147 C   0  0  0  0  0  0  0  0  0  0  0  0
   16.8876   -1.7295   -2.6274 C   0  0  2  0  0  0  0  0  0  0  0  0
   16.0510   -1.3353   -1.5977 O   0  0  0  0  0  0  0  0  0  0  0  0
   16.3618   -2.9017   -3.4041 C   0  0  2  0  0  0  0  0  0  0  0  0
   15.1246   -2.7253   -3.9441 O   0  0  0  0  0  0  0  0  0  0  0  0
   16.5394   -4.1454   -2.5960 C   0  0  1  0  0  0  0  0  0  0  0  0
   15.8214   -5.2247   -3.0198 O   0  0  0  0  0  0  0  0  0  0  0  0
   18.0445   -4.4213   -2.5230 C   0  0  1  0  0  0  0  0  0  0  0  0
   18.6225   -4.3885   -3.7950 O   0  0  0  0  0  0  0  0  0  0  0  0
   17.7293   -4.2479   -4.8117 C   0  0  1  0  0  0  0  0  0  0  0  0
   18.1434   -3.3143   -5.9052 C   0  0  1  0  0  0  0  0  0  0  0  0
   19.2117   -3.9279   -6.8047 C   0  0  0  0  0  0  0  0  0  0  0  0
   17.0154   -3.1349   -6.7360 O   0  0  0  0  0  0  0  0  0  0  0  0
   16.1025   -2.3344   -6.1006 C   0  0  0  0  0  3  0  0  0  0  0  0
   15.0628   -3.0419   -5.3168 C   0  0  1  0  0  0  0  0  0  0  0  0
   14.9468   -4.4963   -5.5367 C   0  0  1  0  0  0  0  0  0  0  0  0
   13.6893   -4.8023   -6.0574 O   0  0  0  0  0  0  0  0  0  0  0  0
   16.0381   -5.1430   -6.3006 C   0  0  2  0  0  0  0  0  0  0  0  0
   15.5477   -6.3471   -6.8285 O   0  0  0  0  0  0  0  0  0  0  0  0
   17.2387   -5.5200   -5.4205 C   0  0  1  0  0  0  0  0  0  0  0  0
   18.2232   -5.9683   -6.3205 O   0  0  0  0  0  0  0  0  0  0  0  0
  2  1  1  6
  2  3  1  0
  3  4  1  0
  4  5  1  1
  4  6  1  0
  6  7  1  1
  6  8  1  0
  8  9  1  6
  8 10  1  0
 10 11  1  6
 12 11  1  1
 12 13  1  0
 13 14  1  6
 13 15  1  0
 15 16  1  0
 17 16  1  6
 17 18  1  0
 18 19  1  6
 18 20  1  0
 20 21  1  1
 20 22  1  0
 22 23  1  6
 10  2  1  0
 17  7  1  0
 22 12  1  0
M  RAD  1  16   2
M  END
>  <docking_score>  (3) 
-6.0739999999999998

$$$$
