
     RDKit          3D

 23 23  0  0  0  0  0  0  0  0999 V2000
   14.9982   -1.2455   -3.5723 C   0  0  0  0  0  0  0  0  0  0  0  0
   15.4134   -2.5706   -4.2147 C   0  0  1  0  0  0  0  0  0  0  0  0
   14.3914   -2.8724   -5.2910 C   0  0  0  0  0  0  0  0  0  0  0  0
   15.0027   -3.4240   -6.5346 C   0  0  2  0  0  0  0  0  0  0  0  0
   15.5034   -4.7112   -6.4003 O   0  0  0  0  0  0  0  0  0  0  0  0
   15.9820   -2.4815   -7.2007 C   0  0  2  0  0  0  0  0  0  0  0  0
   17.1300   -3.2532   -7.4954 O   0  0  0  0  0  0  0  0  0  0  0  0
   16.4501   -1.4882   -6.1278 C   0  0  1  0  0  0  0  0  0  0  0  0
   15.3157   -0.6956   -5.8478 O   0  0  0  0  0  0  0  0  0  0  0  0
   16.7299   -2.3290   -4.8996 C   0  0  1  0  0  0  0  0  0  0  0  0
   17.7616   -1.8085   -4.0650 N   0  0  0  0  0  0  0  0  0  0  0  0
   19.0374   -2.3381   -4.4744 C   0  0  0  0  0  3  0  0  0  0  0  0
   19.8766   -2.7058   -3.2850 C   0  0  0  0  0  0  0  0  0  0  0  0
   19.6637   -4.1399   -2.8803 C   0  0  0  0  0  0  0  0  0  0  0  0
   18.8077   -4.2243   -1.7983 O   0  0  0  0  0  0  0  0  0  0  0  0
   20.9165   -4.6878   -2.5458 O   0  0  0  0  0  0  0  0  0  0  0  0
   19.1022   -4.8941   -3.9236 O   0  0  0  0  0  0  0  0  0  0  0  0
   18.3916   -5.9691   -3.3668 C   0  0  1  0  0  0  0  0  0  0  0  0
   17.0434   -5.7235   -3.6442 O   0  0  0  0  0  0  0  0  0  0  0  0
   18.7966   -7.2126   -4.1451 C   0  0  2  0  0  0  0  0  0  0  0  0
   19.9241   -6.8494   -4.9116 O   0  0  0  0  0  0  0  0  0  0  0  0
   17.6948   -7.6406   -5.0731 C   0  0  0  0  0  3  0  0  0  0  0  0
   17.8143   -9.0121   -5.2880 O   0  0  0  0  0  0  0  0  0  0  0  0
  2  1  1  6
  2  3  1  0
  3  4  1  0
  4  5  1  1
  4  6  1  0
  6  7  1  1
  6  8  1  0
  8  9  1  1
  8 10  1  0
 10 11  1  1
 11 12  1  0
 12 13  1  0
 13 14  1  0
 14 15  1  0
 14 16  1  0
 14 17  1  0
 17 18  1  0
 18 19  1  6
 18 20  1  0
 20 21  1  6
 20 22  1  0
 22 23  1  0
 10  2  1  0
M  RAD  2  12   2  22   2
M  END
>  <docking_score>  (1) 
-3.9169999999999998

$$$$

     RDKit          3D

 23 23  0  0  0  0  0  0  0  0999 V2000
   15.3605   -1.2641   -3.2071 C   0  0  0  0  0  0  0  0  0  0  0  0
   15.0233   -2.1534   -4.4056 C   0  0  1  0  0  0  0  0  0  0  0  0
   15.1758   -1.2935   -5.6431 C   0  0  0  0  0  0  0  0  0  0  0  0
   15.8216   -2.0160   -6.7768 C   0  0  2  0  0  0  0  0  0  0  0  0
   15.0317   -3.0053   -7.3453 O   0  0  0  0  0  0  0  0  0  0  0  0
   17.2267   -2.4906   -6.4742 C   0  0  2  0  0  0  0  0  0  0  0  0
   17.2854   -3.8381   -6.8998 O   0  0  0  0  0  0  0  0  0  0  0  0
   17.3571   -2.5628   -4.9463 C   0  0  1  0  0  0  0  0  0  0  0  0
   17.3267   -1.2185   -4.5158 O   0  0  0  0  0  0  0  0  0  0  0  0
   16.0802   -3.2211   -4.4668 C   0  0  1  0  0  0  0  0  0  0  0  0
   16.2369   -3.9888   -3.2760 N   0  0  0  0  0  0  0  0  0  0  0  0
   16.4503   -5.3739   -3.6100 C   0  0  0  0  0  3  0  0  0  0  0  0
   17.7223   -5.8871   -2.9995 C   0  0  0  0  0  0  0  0  0  0  0  0
   18.7312   -6.2576   -4.0533 C   0  0  0  0  0  0  0  0  0  0  0  0
   19.5258   -7.3054   -3.6276 O   0  0  0  0  0  0  0  0  0  0  0  0
   19.5266   -5.1251   -4.3110 O   0  0  0  0  0  0  0  0  0  0  0  0
   18.1091   -6.6567   -5.2477 O   0  0  0  0  0  0  0  0  0  0  0  0
   18.2902   -8.0397   -5.4064 C   0  0  1  0  0  0  0  0  0  0  0  0
   17.0164   -8.6079   -5.3078 O   0  0  0  0  0  0  0  0  0  0  0  0
   18.7760   -8.2576   -6.8320 C   0  0  2  0  0  0  0  0  0  0  0  0
   20.1632   -8.5001   -6.7443 O   0  0  0  0  0  0  0  0  0  0  0  0
   18.5489   -7.0271   -7.6644 C   0  0  0  0  0  3  0  0  0  0  0  0
   17.3631   -7.1954   -8.3765 O   0  0  0  0  0  0  0  0  0  0  0  0
  2  1  1  1
  2  3  1  0
  3  4  1  0
  4  5  1  1
  4  6  1  0
  6  7  1  6
  6  8  1  0
  8  9  1  1
  8 10  1  0
 10 11  1  1
 11 12  1  0
 12 13  1  0
 13 14  1  0
 14 15  1  0
 14 16  1  0
 14 17  1  0
 17 18  1  0
 18 19  1  6
 18 20  1  0
 20 21  1  1
 20 22  1  0
 22 23  1  0
 10  2  1  0
M  RAD  2  12   2  22   2
M  END
>  <docking_score>  (2) 
-3.8300000000000001

$$$$

     RDKit          3D

 23 23  0  0  0  0  0  0  0  0999 V2000
   18.6626   -6.8464   -3.6306 C   0  0  0  0  0  0  0  0  0  0  0  0
   18.4665   -5.8776   -4.7985 C   0  0  1  0  0  0  0  0  0  0  0  0
   19.2153   -6.4606   -5.9789 C   0  0  0  0  0  0  0  0  0  0  0  0
   18.4730   -6.3201   -7.2649 C   0  0  2  0  0  0  0  0  0  0  0  0
   18.3895   -5.0170   -7.7346 O   0  0  0  0  0  0  0  0  0  0  0  0
   17.1382   -7.0336   -7.2778 C   0  0  2  0  0  0  0  0  0  0  0  0
   16.2042   -6.1083   -7.7993 O   0  0  0  0  0  0  0  0  0  0  0  0
   16.7164   -7.2237   -5.8140 C   0  0  1  0  0  0  0  0  0  0  0  0
   17.6282   -8.1676   -5.2934 O   0  0  0  0  0  0  0  0  0  0  0  0
   17.0024   -5.8979   -5.1401 C   0  0  1  0  0  0  0  0  0  0  0  0
   16.1229   -5.5964   -4.0596 N   0  0  0  0  0  0  0  0  0  0  0  0
   15.5432   -4.2911   -4.2488 C   0  0  0  0  0  3  0  0  0  0  0  0
   16.3322   -3.4884   -5.2424 C   0  0  0  0  0  0  0  0  0  0  0  0
   16.7609   -2.1648   -4.6681 C   0  0  0  0  0  0  0  0  0  0  0  0
   15.7747   -1.2114   -4.8384 O   0  0  0  0  0  0  0  0  0  0  0  0
   17.9365   -1.7637   -5.3304 O   0  0  0  0  0  0  0  0  0  0  0  0
   17.0249   -2.2590   -3.2917 O   0  0  0  0  0  0  0  0  0  0  0  0
   18.4098   -2.1453   -3.0926 C   0  0  1  0  0  0  0  0  0  0  0  0
   18.5946   -0.9888   -2.3289 O   0  0  0  0  0  0  0  0  0  0  0  0
   18.8279   -3.3293   -2.2329 C   0  0  2  0  0  0  0  0  0  0  0  0
   17.6590   -3.7778   -1.5823 O   0  0  0  0  0  0  0  0  0  0  0  0
   19.8296   -2.9054   -1.1960 C   0  0  0  0  0  3  0  0  0  0  0  0
   20.8317   -3.8718   -1.1373 O   0  0  0  0  0  0  0  0  0  0  0  0
  2  1  1  1
  2  3  1  0
  3  4  1  0
  4  5  1  1
  4  6  1  0
  6  7  1  6
  6  8  1  0
  8  9  1  1
  8 10  1  0
 10 11  1  1
 11 12  1  0
 12 13  1  0
 13 14  1  0
 14 15  1  0
 14 16  1  0
 14 17  1  0
 17 18  1  0
 18 19  1  1
 18 20  1  0
 20 21  1  1
 20 22  1  0
 22 23  1  0
 10  2  1  0
M  RAD  2  12   2  22   2
M  END
>  <docking_score>  (3) 
-3.649

$$$$
