
     RDKit          3D

 68 71  0  0  0  0  0  0  0  0999 V2000
    7.1830   14.0657    6.8097 C   0  0  0  0  0  0  0  0  0  0  0  0
    5.9004   14.5824    6.5246 O   0  0  0  0  0  0  0  0  0  0  0  0
    4.7593   14.0740    7.1258 C   0  0  0  0  0  0  0  0  0  0  0  0
    3.9760   13.1548    6.5819 C   0  0  0  0  0  0  0  0  0  0  0  0
    4.3844   12.6657    5.2407 C   0  0  0  0  0  0  0  0  0  0  0  0
    4.0158   11.4669    4.8028 C   0  0  0  0  0  0  0  0  0  0  0  0
    4.4240   10.9397    3.4686 C   0  0  1  0  0  0  0  0  0  0  0  0
    4.8803   11.9666    2.5000 C   0  0  0  0  0  0  0  0  0  0  0  0
    5.2957   13.2497    3.0981 C   0  0  0  0  0  0  0  0  0  0  0  0
    6.0815   14.1867    2.3622 C   0  0  0  0  0  0  0  0  0  0  0  0
    7.0570   14.8142    2.3418 C   0  0  0  0  0  0  0  0  0  0  0  0
    8.2513   15.3863    2.6384 C   0  0  0  0  0  0  0  0  0  0  0  0
    9.2479   15.5607    1.7780 C   0  0  0  0  0  0  0  0  0  0  0  0
   10.5166   16.0594    1.6966 O   0  0  0  0  0  0  0  0  0  0  0  0
    9.3392   15.2085    0.3359 C   0  0  0  0  0  0  0  0  0  0  0  0
   10.5568   15.7175    0.3707 C   0  0  0  0  0  0  0  0  0  0  0  0
    5.0458   13.5363    4.3402 N   0  0  0  0  0  0  0  0  0  0  0  0
    5.7499   10.1196    3.7641 C   0  0  0  0  0  0  0  0  0  0  0  0
    3.4413   10.0111    2.9354 C   0  0  0  0  0  0  0  0  0  0  0  0
    3.3109    8.7541    3.3677 O   0  0  0  0  0  0  0  0  0  0  0  0
    2.2650    8.4675    4.1790 C   0  0  0  0  0  0  0  0  0  0  0  0
    2.4565    7.6042    5.3102 C   0  0  0  0  0  0  0  0  0  0  0  0
    3.4937    7.2412    5.9204 C   0  0  0  0  0  0  0  0  0  0  0  0
    4.8798    7.5456    5.7236 C   0  0  0  0  0  0  0  0  0  0  0  0
    5.4445    8.6597    6.4745 C   0  0  0  0  0  0  0  0  0  0  0  0
    6.0813    8.3609    7.7362 C   0  0  0  0  0  0  0  0  0  0  0  0
    5.4764    8.7119    8.8605 C   0  0  0  0  0  0  0  0  0  0  0  0
    4.1428    9.4060    8.7870 C   0  0  0  0  0  0  0  0  0  0  0  0
    6.0843    8.4699   10.1442 C   0  0  0  0  0  0  0  0  0  0  0  0
    7.4011    8.2812   10.2216 C   0  0  0  0  0  0  0  0  0  0  0  0
    8.2146    8.3234    9.0285 C   0  0  0  0  0  0  0  0  0  0  0  0
    8.6716    9.4756    8.5572 C   0  0  0  0  0  0  0  0  0  0  0  0
    9.4873    9.4351    7.3592 C   0  0  0  0  0  0  0  0  0  0  0  0
    8.9480    9.9324    6.0783 C   0  0  0  0  0  0  0  0  0  0  0  0
   10.7029    8.9699    7.3882 C   0  0  0  0  0  0  0  0  0  0  0  0
   11.2403    8.5032    8.5753 O   0  0  0  0  0  0  0  0  0  0  0  0
   11.7738    9.3813    9.5784 C   0  0  2  0  0  0  0  0  0  0  0  0
   11.3315   10.6729    9.3032 O   0  0  0  0  0  0  0  0  0  0  0  0
   10.6276   11.4874   10.1781 C   0  0  0  0  0  0  0  0  0  0  0  0
   13.2749    9.3264    9.4124 C   0  0  0  0  0  0  0  0  0  0  0  0
   13.7745   10.6199    9.4467 O   0  0  0  0  0  0  0  0  0  0  0  0
   13.8261   11.1399   10.7217 C   0  0  0  0  0  0  0  0  0  0  0  0
   13.5836   10.0991   11.7604 C   0  0  0  0  0  0  0  0  0  0  0  0
   12.5956   10.5702   12.7941 C   0  0  0  0  0  0  0  0  0  0  0  0
   12.6395   11.8351   13.1684 C   0  0  0  0  0  0  0  0  0  0  0  0
   13.6402   12.7812   12.5887 C   0  0  0  0  0  0  0  0  0  0  0  0
   12.9742   14.0620   12.1783 C   0  0  0  0  0  0  0  0  0  0  0  0
   13.3695   14.4999   10.9126 O   0  0  0  0  0  0  0  0  0  0  0  0
   12.2670   14.7479   10.1300 C   0  0  0  0  0  0  0  0  0  0  0  0
   11.7600   13.4956    9.4639 C   0  0  0  0  0  0  0  0  0  0  0  0
   10.7537   12.7735   10.3204 C   0  0  0  0  0  0  0  0  0  0  0  0
   10.0304   13.5593   11.2079 O   0  0  0  0  0  0  0  0  0  0  0  0
    8.6435   13.3276   11.3712 C   0  0  0  0  0  0  0  0  0  0  0  0
    7.8538   13.6398   10.3483 C   0  0  0  0  0  0  0  0  0  0  0  0
    8.5563   14.2111    9.1263 C   0  0  0  0  0  0  0  0  0  0  0  0
    6.4956   13.4631   10.3858 O   0  0  0  0  0  0  0  0  0  0  0  0
    5.7758   12.2563   10.4592 C   0  0  0  0  0  0  0  0  0  0  0  0
    4.7007   12.1852   11.3257 C   0  0  0  0  0  0  0  0  0  0  0  0
    3.6962   11.8520   11.8480 N   0  0  0  0  0  0  0  0  0  0  0  0
    3.1507   12.5014   13.0243 C   0  0  0  0  0  0  0  0  0  0  0  0
    3.9447   13.7053   13.4474 C   0  0  0  0  0  0  0  0  0  0  0  0
    4.9921   13.4098   14.3595 O   0  0  0  0  0  0  0  0  0  0  0  0
    6.0895   12.7327   13.7891 C   0  0  0  0  0  0  0  0  0  0  0  0
    7.0641   13.4988   13.2567 C   0  0  0  0  0  0  0  0  0  0  0  0
    8.2070   12.7629   12.6584 C   0  0  2  0  0  0  0  0  0  0  0  0
    9.3512   12.7879   13.6335 C   0  0  0  0  0  0  0  0  0  0  0  0
    8.9409   12.6293   15.0098 N   0  0  0  0  0  0  0  0  0  0  0  0
    7.5975   12.7828   15.1477 O   0  0  0  0  0  0  0  0  0  0  0  0
  1  2  1  0
  2  3  1  0
  3  4  2  3
  4  5  1  0
  5  6  2  0
  6  7  1  0
  7  8  1  0
  8  9  1  0
  9 10  1  0
 10 11  2  3
 11 12  1  0
 12 13  2  3
 13 14  1  0
 13 15  1  0
 15 16  2  0
  9 17  2  0
  7 18  1  1
  7 19  1  0
 19 20  1  0
 20 21  1  0
 21 22  1  0
 22 23  2  3
 23 24  1  0
 24 25  1  0
 25 26  1  0
 26 27  2  3
 27 28  1  0
 27 29  1  0
 29 30  2  3
 30 31  1  0
 31 32  2  3
 32 33  1  0
 33 34  1  0
 33 35  2  3
 35 36  1  0
 37 36  1  6
 37 38  1  0
 38 39  1  0
 37 40  1  0
 40 41  1  0
 41 42  1  0
 42 43  1  0
 43 44  1  0
 44 45  2  3
 45 46  1  0
 46 47  1  0
 47 48  1  0
 48 49  1  0
 49 50  1  0
 50 51  1  0
 51 52  1  0
 52 53  1  0
 53 54  2  3
 54 55  1  0
 54 56  1  0
 56 57  1  0
 57 58  1  0
 58 59  2  3
 59 60  1  0
 60 61  1  0
 61 62  1  0
 62 63  1  0
 63 64  2  3
 64 65  1  0
 65 66  1  1
 66 67  1  0
 67 68  1  0
 17  5  1  0
 16 14  1  0
 39 51  2  3
 65 53  1  0
M  END
>  <docking_score>  (1) 
67.418000000000006

$$$$
