
     RDKit          3D

 39 40  0  0  0  0  0  0  0  0999 V2000
   20.1492   -5.5991   -8.1919 O   0  0  0  0  0  0  0  0  0  0  0  0
   20.9399   -5.4479   -7.1702 O   0  0  0  0  0  0  0  0  0  0  0  0
   20.2234   -5.2107   -5.9874 C   0  0  0  0  0  3  0  0  0  0  0  0
   20.9110   -5.7159   -4.8693 O   0  0  0  0  0  0  0  0  0  0  0  0
   20.3552   -6.9636   -4.5201 C   0  0  2  0  0  0  0  0  0  0  0  0
   21.3518   -8.0680   -4.8215 C   0  0  0  0  0  0  0  0  0  0  0  0
   21.0020   -7.9522   -6.1663 O   0  0  0  0  0  0  0  0  0  0  0  0
   19.7301   -7.5255   -5.7562 C   0  0  1  0  0  0  0  0  0  0  0  0
   18.7836   -8.6409   -5.5158 C   0  0  0  0  0  3  0  0  0  0  0  0
   17.4732   -8.5444   -6.1837 C   0  0  0  0  0  0  0  0  0  0  0  0
   17.4351   -7.7560   -7.4466 C   0  0  2  0  0  0  0  0  0  0  0  0
   18.7605   -7.3230   -7.9603 C   0  0  0  0  0  0  0  0  0  0  0  0
   18.9281   -5.9415   -7.8746 O   0  0  0  0  0  0  0  0  0  0  0  0
   16.4907   -6.7441   -7.3718 O   0  0  0  0  0  0  0  0  0  0  0  0
   16.4514   -6.3128   -6.1405 O   0  0  0  0  0  0  0  0  0  0  0  0
   16.2015   -5.0340   -6.0812 O   0  0  0  0  0  0  0  0  0  0  0  0
   15.1362   -4.7023   -5.2736 C   0  0  0  0  0  3  0  0  0  0  0  0
   14.6732   -3.2990   -5.5817 C   0  0  2  0  0  0  0  0  0  0  0  0
   15.0189   -2.9627   -7.0311 C   0  0  0  0  0  0  0  0  0  0  0  0
   16.4101   -2.9583   -7.1705 O   0  0  0  0  0  0  0  0  0  0  0  0
   16.7002   -2.7991   -8.5313 C   0  0  0  0  0  3  0  0  0  0  0  0
   18.1413   -2.3297   -8.6350 C   0  0  0  0  0  2  0  0  0  0  0  0
   15.3983   -2.3054   -4.7019 C   0  0  2  0  0  0  0  0  0  0  0  0
   15.5594   -0.9666   -5.3834 C   0  0  0  0  0  0  0  0  0  0  0  0
   14.3417   -0.2804   -5.3828 O   0  0  0  0  0  0  0  0  0  0  0  0
   13.9214   -0.1356   -4.0609 C   0  0  0  0  0  2  0  0  0  0  0  0
   16.6952   -2.8398   -4.1788 C   0  0  2  0  0  0  0  0  0  0  0  0
   16.5205   -3.3783   -2.9283 O   0  0  0  0  0  0  0  0  0  0  0  0
   15.2539   -3.6677   -2.7035 O   0  0  0  0  0  0  0  0  0  0  0  0
   17.7079   -1.7192   -4.1824 C   0  0  2  0  0  0  0  0  0  0  0  0
   18.9886   -2.1019   -4.8918 C   0  0  0  0  0  0  0  0  0  0  0  0
   19.7741   -0.9562   -5.0010 O   0  0  0  0  0  0  0  0  0  0  0  0
   21.0840   -1.1767   -6.0733 S   0  0  0  0  0  0  0  0  0  0  0  0
   20.9642   -0.1975   -7.4645 O   0  0  0  0  0  0  0  0  0  0  0  0
   21.3495    1.1076   -7.0984 C   0  0  0  0  0  2  0  0  0  0  0  0
   17.9570   -1.3556   -2.8651 O   0  0  0  0  0  0  0  0  0  0  0  0
   19.0433   -2.0805   -2.4111 C   0  0  0  0  0  3  0  0  0  0  0  0
   19.0077   -3.3619   -2.9418 O   0  0  0  0  0  0  0  0  0  0  0  0
   19.8454   -4.1990   -2.2153 C   0  0  0  0  0  2  0  0  0  0  0  0
  1  2  1  0
  2  3  1  0
  3  4  1  0
  4  5  1  0
  5  6  1  6
  6  7  1  0
  5  8  1  0
  8  9  1  1
  9 10  1  0
 10 11  1  0
 11 12  1  0
 12 13  1  0
 11 14  1  1
 14 15  1  0
 15 16  1  0
 16 17  1  0
 18 17  1  1
 18 19  1  0
 19 20  1  0
 20 21  1  0
 21 22  1  0
 18 23  1  0
 23 24  1  6
 24 25  1  0
 25 26  1  0
 23 27  1  0
 27 28  1  1
 28 29  1  0
 27 30  1  0
 30 31  1  1
 31 32  1  0
 32 33  1  0
 33 34  1  0
 34 35  1  0
 30 36  1  0
 36 37  1  0
 37 38  1  0
 38 39  1  0
 13  1  1  0
  8  7  1  0
M  RAD  8   3   2   9   2  17   2  21   2  22   3  26   3  35   3  37   2
M  RAD  1  39   3
M  END
>  <docking_score>  (1) 
-2.6469999999999998

$$$$
