
     RDKit          3D

 15 16  0  0  0  0  0  0  0  0999 V2000
   15.1050   -4.5880   -7.4926 C   0  0  0  0  0  0  0  0  0  0  0  0
   14.2138   -4.3605   -6.2848 C   0  0  1  0  0  0  0  0  0  0  0  0
   13.9831   -5.6697   -5.5543 C   0  0  0  0  0  0  0  0  0  0  0  0
   15.3485   -6.3493   -5.5107 C   0  0  2  0  0  0  0  0  0  0  0  0
   15.2692   -7.6071   -4.9240 O   0  0  0  0  0  0  0  0  0  0  0  0
   16.3853   -5.4740   -4.8707 C   0  0  2  0  0  0  0  0  0  0  0  0
   16.9390   -6.1728   -3.7997 O   0  0  0  0  0  0  0  0  0  0  0  0
   15.8908   -4.1446   -4.4267 C   0  0  1  0  0  0  0  0  0  0  0  0
   16.9849   -3.3288   -4.1534 O   0  0  0  0  0  0  0  0  0  0  0  0
   14.9604   -3.4573   -5.3477 C   0  0  1  0  0  0  0  0  0  0  0  0
   15.6883   -2.4088   -6.1968 C   0  0  0  0  0  3  0  0  0  0  0  0
   14.9789   -1.0778   -6.1125 C   0  0  0  0  0  3  0  0  0  0  0  0
   14.2858   -0.8667   -4.7979 C   0  0  1  0  0  0  0  0  0  0  0  0
   13.7736    0.3306   -4.3791 C   0  0  0  0  0  0  0  0  0  0  0  0
   12.8580   -0.7482   -4.8734 O   0  0  0  0  0  0  0  0  0  0  0  0
  2  1  1  6
  2  3  1  0
  3  4  1  0
  4  5  1  1
  4  6  1  0
  6  7  1  1
  6  8  1  0
  8  9  1  6
  8 10  1  0
 10 11  1  6
 11 12  1  0
 13 12  1  6
 13 14  1  0
 13 15  1  0
 10  2  1  0
 15 14  1  0
M  RAD  2  11   2  12   2
M  END
>  <docking_score>  (1) 
-4.3170000000000002

$$$$

     RDKit          3D

 15 16  0  0  0  0  0  0  0  0999 V2000
   18.4228   -4.4808   -3.3090 C   0  0  0  0  0  0  0  0  0  0  0  0
   17.1144   -4.9520   -2.7002 C   0  0  1  0  0  0  0  0  0  0  0  0
   16.5495   -3.8804   -1.7872 C   0  0  0  0  0  0  0  0  0  0  0  0
   16.7318   -2.5703   -2.5477 C   0  0  2  0  0  0  0  0  0  0  0  0
   16.3164   -1.4824   -1.7883 O   0  0  0  0  0  0  0  0  0  0  0  0
   16.0828   -2.6168   -3.8995 C   0  0  2  0  0  0  0  0  0  0  0  0
   15.1757   -1.5620   -3.9796 O   0  0  0  0  0  0  0  0  0  0  0  0
   15.4163   -3.9043   -4.2269 C   0  0  1  0  0  0  0  0  0  0  0  0
   15.1426   -3.9320   -5.5913 O   0  0  0  0  0  0  0  0  0  0  0  0
   16.1405   -5.1302   -3.8276 C   0  0  1  0  0  0  0  0  0  0  0  0
   16.9060   -5.7362   -5.0095 C   0  0  0  0  0  3  0  0  0  0  0  0
   16.3535   -7.0999   -5.3515 C   0  0  0  0  0  3  0  0  0  0  0  0
   17.4195   -8.1498   -5.4707 C   0  0  1  0  0  0  0  0  0  0  0  0
   17.1744   -9.4935   -5.5449 C   0  0  0  0  0  0  0  0  0  0  0  0
   17.5612   -8.7298   -6.7752 O   0  0  0  0  0  0  0  0  0  0  0  0
  2  1  1  6
  2  3  1  0
  3  4  1  0
  4  5  1  1
  4  6  1  0
  6  7  1  1
  6  8  1  0
  8  9  1  6
  8 10  1  0
 10 11  1  6
 11 12  1  0
 13 12  1  6
 13 14  1  0
 13 15  1  0
 10  2  1  0
 15 14  1  0
M  RAD  2  11   2  12   2
M  END
>  <docking_score>  (2) 
-4.2030000000000003

$$$$

     RDKit          3D

 15 16  0  0  0  0  0  0  0  0999 V2000
   17.2953   -5.1040   -2.9015 C   0  0  0  0  0  0  0  0  0  0  0  0
   17.8432   -4.3347   -4.0900 C   0  0  1  0  0  0  0  0  0  0  0  0
   17.2073   -4.8363   -5.3725 C   0  0  0  0  0  0  0  0  0  0  0  0
   15.7246   -4.9942   -5.0486 C   0  0  2  0  0  0  0  0  0  0  0  0
   15.0243   -5.5214   -6.1276 O   0  0  0  0  0  0  0  0  0  0  0  0
   15.1279   -3.7164   -4.5371 C   0  0  2  0  0  0  0  0  0  0  0  0
   14.0516   -3.3836   -5.3572 O   0  0  0  0  0  0  0  0  0  0  0  0
   16.0800   -2.5793   -4.4387 C   0  0  1  0  0  0  0  0  0  0  0  0
   15.4993   -1.5750   -3.6697 O   0  0  0  0  0  0  0  0  0  0  0  0
   17.4266   -2.9032   -3.9208 C   0  0  1  0  0  0  0  0  0  0  0  0
   17.5502   -2.5577   -2.4323 C   0  0  0  0  0  3  0  0  0  0  0  0
   18.6073   -1.4991   -2.2232 C   0  0  0  0  0  3  0  0  0  0  0  0
   19.8062   -2.0089   -1.4776 C   0  0  1  0  0  0  0  0  0  0  0  0
   19.9070   -3.2648   -0.9450 C   0  0  0  0  0  0  0  0  0  0  0  0
   20.6361   -2.9225   -2.2090 O   0  0  0  0  0  0  0  0  0  0  0  0
  2  1  1  1
  2  3  1  0
  3  4  1  0
  4  5  1  6
  4  6  1  0
  6  7  1  6
  6  8  1  0
  8  9  1  1
  8 10  1  0
 10 11  1  1
 11 12  1  0
 13 12  1  6
 13 14  1  0
 13 15  1  0
 10  2  1  0
 15 14  1  0
M  RAD  2  11   2  12   2
M  END
>  <docking_score>  (3) 
-4.1020000000000003

$$$$
