
     RDKit          3D

 79 82  0  0  0  0  0  0  0  0999 V2000
   18.7300   -8.6173   -7.9659 C   0  0  0  0  0  0  0  0  0  0  0  0
   19.7286   -7.8113   -8.7371 C   0  0  0  0  0  0  0  0  0  0  0  0
   21.1361   -8.2885   -8.4000 C   0  0  0  0  0  0  0  0  0  0  0  0
   19.6514   -6.3249   -8.3827 C   0  0  0  0  0  0  0  0  0  0  0  0
   18.4562   -6.1487   -7.4661 C   0  0  0  0  0  0  0  0  0  0  0  0
   17.3233   -5.4663   -8.2027 C   0  0  0  0  0  0  0  0  0  0  0  0
   16.8868   -4.2214   -7.5016 C   0  0  1  0  0  0  0  0  0  0  0  0
   15.5208   -3.7684   -7.9074 C   0  0  0  0  0  0  0  0  0  0  0  0
   17.0542   -4.2729   -6.0086 C   0  0  0  0  0  3  0  0  0  0  0  0
   16.5767   -3.0420   -5.3010 C   0  0  0  0  0  3  0  0  0  0  0  0
   16.2668   -3.2537   -3.8451 C   0  0  0  0  0  0  0  0  0  0  0  0
   16.1368   -1.9133   -3.1767 C   0  0  0  0  0  0  0  0  0  0  0  0
   15.9780   -0.8493   -4.2147 C   0  0  0  0  0  0  0  0  0  0  0  0
   17.4195   -1.6697   -2.3993 C   0  0  0  0  0  0  0  0  0  0  0  0
   15.0099   -1.9077   -2.1503 C   0  0  2  0  0  0  0  0  0  0  0  0
   14.5813   -0.4607   -1.9702 C   0  0  0  0  0  0  0  0  0  0  0  0
   15.5120   -2.3901   -0.8294 C   0  0  1  0  0  0  0  0  0  0  0  0
   15.2223   -3.8165   -0.5446 C   0  0  0  0  0  0  0  0  0  0  0  0
   16.8597   -1.8980   -0.4339 C   0  0  0  0  0  0  0  0  0  0  0  0
   17.8654   -2.9907   -0.5902 C   0  0  0  0  0  3  0  0  0  0  0  0
   18.8642   -3.0355    0.5441 C   0  0  2  0  0  0  0  0  0  0  0  0
   20.1947   -3.4726   -0.0325 C   0  0  0  0  0  2  0  0  0  0  0  0
   18.5164   -3.9078    1.5466 O   0  0  0  0  0  0  0  0  0  0  0  0
   17.2273   -4.2443    1.5810 N   0  0  0  0  0  0  0  0  0  0  0  0
   16.9388   -5.2522    0.6133 C   0  0  0  0  0  0  0  0  0  0  0  0
   16.3035   -4.7798   -0.6284 C   0  0  0  0  0  3  0  0  0  0  0  0
   16.4223   -5.6200   -1.8235 C   0  0  1  0  0  0  0  0  0  0  0  0
   15.9859   -4.9659   -3.1094 O   0  0  0  0  0  0  0  0  0  0  0  0
   17.2147   -5.4995   -2.8843 C   0  0  2  0  0  0  0  0  0  0  0  0
   17.9903   -6.3093   -3.7885 C   0  0  0  0  0  0  0  0  0  0  0  0
   18.4849   -4.9393   -3.2712 C   0  0  2  0  0  0  0  0  0  0  0  0
   19.5813   -4.9546   -2.2646 C   0  0  0  0  0  3  0  0  0  0  0  0
   20.8591   -4.8457   -2.5484 C   0  0  0  0  0  0  0  0  0  0  0  0
   21.2934   -4.6941   -3.9603 C   0  0  0  0  0  2  0  0  0  0  0  0
   20.5731   -3.5924   -4.6806 C   0  0  0  0  0  0  0  0  0  0  0  0
   19.9759   -2.6504   -3.7089 C   0  0  1  0  0  0  0  0  0  0  0  0
   19.0197   -3.1780   -2.7333 C   0  0  0  0  0  0  0  0  0  0  0  0
   20.8083   -1.5040   -3.3407 C   0  0  0  0  0  0  0  0  0  0  0  0
   20.4608   -0.7832   -2.0761 C   0  0  0  0  0  0  0  0  0  0  0  0
   21.2533    0.4685   -1.8665 C   0  0  1  0  0  0  0  0  0  0  0  0
   21.3825    1.1677   -3.0597 O   0  0  0  0  0  0  0  0  0  0  0  0
   20.5161    1.3450   -0.8706 C   0  0  0  0  0  0  0  0  0  0  0  0
   19.0511    0.9854   -0.8755 C   0  0  0  0  0  2  0  0  0  0  0  0
   18.5698    0.8572    0.5482 C   0  0  0  0  0  0  0  0  0  0  0  0
   17.5113    1.8953    0.8009 C   0  0  0  0  0  3  0  0  0  0  0  0
   17.7601    3.1517    0.0278 C   0  0  0  0  0  0  0  0  0  0  0  0
   17.4004    2.1206    2.2929 C   0  0  2  0  0  0  0  0  0  0  0  0
   18.7684    2.0053    2.9447 C   0  0  0  0  0  0  0  0  0  0  0  0
   16.3918    1.2147    2.9234 C   0  0  0  0  0  3  0  0  0  0  0  0
   15.2328    0.9665    2.0025 C   0  0  0  0  0  0  0  0  0  0  0  0
   13.9919    0.8385    2.7940 C   0  0  0  0  0  0  0  0  0  0  0  0
   13.3292    1.9152    3.1583 C   0  0  0  0  0  0  0  0  0  0  0  0
   12.9683    3.3503    3.3133 C   0  0  0  0  0  3  0  0  0  0  0  0
   12.0847    2.3502    3.9229 C   0  0  0  0  0  3  0  0  0  0  0  0
   12.1859    2.0725    5.3972 C   0  0  0  0  0  3  0  0  0  0  0  0
   10.9819    2.5620    6.1645 C   0  0  0  0  0  0  0  0  0  0  0  0
   10.9263    4.0689    6.0624 C   0  0  0  0  0  0  0  0  0  0  0  0
    9.5113    4.4740    5.7266 C   0  0  2  0  0  0  0  0  0  0  0  0
    9.3386    6.2491    6.0806 S   0  0  0  0  0  0  0  0  0  0  0  0
    8.3417    3.5243    6.7197 S   0  0  0  0  0  0  0  0  0  0  0  0
    8.3987    1.7777    6.2370 C   0  0  0  0  0  3  0  0  0  0  0  0
    7.6320    0.9225    7.2042 C   0  0  0  0  0  0  0  0  0  0  0  0
    7.8052    1.4506    8.5985 C   0  0  0  0  0  0  0  0  0  0  0  0
    8.5817    0.4806    9.4772 C   0  0  1  0  0  0  0  0  0  0  0  0
    9.5480   -0.3145    8.6211 C   0  0  0  0  0  2  0  0  0  0  0  0
    9.3763    1.2301   10.5279 C   0  0  0  0  0  0  0  0  0  0  0  0
   10.8299    1.2519   10.1205 C   0  0  0  0  0  0  0  0  0  0  0  0
   11.4464    2.5265   10.6764 C   0  0  1  0  0  0  0  0  0  0  0  0
   11.8795    2.3113   12.1182 C   0  0  0  0  0  0  0  0  0  0  0  0
   11.2133    1.0764   12.6600 C   0  0  0  0  0  3  0  0  0  0  0  0
   10.3117    1.4005   13.8244 C   0  0  0  0  0  0  0  0  0  0  0  0
   12.6620    2.9166    9.8475 C   0  0  0  0  0  0  0  0  0  0  0  0
   13.8823    2.3452   10.5262 C   0  0  2  0  0  0  0  0  0  0  0  0
   13.8153    2.7463   11.9887 C   0  0  0  0  0  0  0  0  0  0  0  0
   15.1560    2.9317    9.9676 C   0  0  0  0  0  3  0  0  0  0  0  0
   16.2501    1.8923   10.0815 C   0  0  0  0  0  0  0  0  0  0  0  0
   15.5983    0.5284   10.1250 C   0  0  0  0  0  3  0  0  0  0  0  0
   15.2244    0.0516    8.7396 C   0  0  0  0  0  3  0  0  0  0  0  0
   15.7856   -1.3279    8.5063 C   0  0  0  0  0  0  0  0  0  0  0  0
  1  2  1  0
  2  3  1  0
  2  4  1  0
  4  5  1  0
  5  6  1  0
  6  7  1  0
  7  8  1  1
  7  9  1  0
  9 10  1  0
 10 11  1  0
 11 12  1  0
 12 13  1  0
 12 14  1  0
 12 15  1  0
 15 16  1  1
 15 17  1  0
 17 18  1  6
 17 19  1  0
 19 20  1  0
 20 21  1  0
 21 22  1  6
 21 23  1  0
 23 24  1  0
 24 25  1  0
 25 26  1  0
 27 26  1  1
 27 28  1  0
 28 29  1  0
 29 30  1  6
 31 30  1  6
 31 32  1  0
 32 33  2  3
 33 34  1  0
 34 35  1  0
 35 36  1  0
 36 37  1  1
 36 38  1  0
 38 39  1  0
 39 40  1  0
 40 41  1  6
 40 42  1  0
 42 43  1  0
 43 44  1  0
 44 45  1  0
 45 46  1  0
 45 47  1  0
 47 48  1  1
 47 49  1  0
 49 50  1  0
 50 51  1  0
 51 52  2  3
 52 53  1  0
 52 54  1  0
 54 55  1  0
 55 56  1  0
 56 57  1  0
 57 58  1  0
 58 59  1  1
 58 60  1  0
 60 61  1  0
 61 62  1  0
 62 63  1  0
 63 64  1  0
 64 65  1  6
 64 66  1  0
 66 67  1  0
 68 67  1  6
 68 69  1  0
 69 70  1  0
 70 71  1  0
 68 72  1  0
 72 73  1  0
 73 74  1  1
 73 75  1  0
 75 76  1  0
 76 77  1  0
 77 78  1  0
 78 79  1  0
 26 18  1  0
 29 27  1  0
 31 29  1  0
 54 53  1  0
M  RAD  8   9   2  10   2  20   2  22   3  26   2  32   2  34   3  43   3
M  RAD  8  45   2  49   2  53   2  54   2  55   2  61   2  65   3  70   2
M  RAD  3  75   2  77   2  78   2
M  END
>  <docking_score>  (1) 
79.850999999999999

$$$$
