
     RDKit          3D

 67 73  0  0  0  0  0  0  0  0999 V2000
    6.5320   10.9649    8.6578 C   0  0  0  0  0  0  0  0  0  0  0  0
    5.8623   11.1316    9.9794 C   0  0  2  0  0  0  0  0  0  0  0  0
    5.5506   12.5393   10.3511 C   0  0  0  0  0  0  0  0  0  0  0  0
    6.4435   10.3085   11.0815 C   0  0  0  0  0  0  0  0  0  0  0  0
    5.5786    9.0812   11.2714 C   0  0  0  0  0  0  0  0  0  0  0  0
    5.2273    8.8416   12.7035 C   0  0  0  0  0  0  0  0  0  0  0  0
    3.8606    9.3180   13.0896 C   0  0  1  0  0  0  0  0  0  0  0  0
    2.7460    8.4751   12.5525 C   0  0  0  0  0  0  0  0  0  0  0  0
    3.7360    9.6259   14.5475 C   0  0  0  0  0  3  0  0  0  0  0  0
    2.8042   10.7657   14.8350 C   0  0  0  0  0  0  0  0  0  0  0  0
    3.4407   11.7857   15.7571 C   0  0  0  0  0  0  0  0  0  0  0  0
    4.6547   12.4080   15.0942 C   0  0  1  0  0  0  0  0  0  0  0  0
    4.6106   12.0589   13.6159 C   0  0  0  0  0  0  0  0  0  0  0  0
    4.5741   13.8940   15.2911 C   0  0  0  0  0  0  0  0  0  0  0  0
    5.4372   14.6704   14.3567 C   0  0  1  0  0  0  0  0  0  0  0  0
    6.7051   14.8884   14.7847 F   0  0  0  0  0  0  0  0  0  0  0  0
    5.3320   14.2358   12.9202 C   0  0  1  0  0  0  0  0  0  0  0  0
    4.5667   15.2163   12.1518 C   0  0  2  0  0  0  0  0  0  0  0  0
    3.1287   14.9479   11.9431 C   0  0  0  0  0  0  0  0  0  0  0  0
    2.8093   14.2189   10.8279 O   0  0  0  0  0  0  0  0  0  0  0  0
    2.2579   12.9864   11.0702 C   0  0  0  0  0  0  0  0  0  0  0  0
    2.3012   12.2615    9.8734 O   0  0  0  0  0  0  0  0  0  0  0  0
    2.2862   10.8849   10.0957 C   0  0  0  0  0  0  0  0  0  0  0  0
    2.2783   10.2260    8.7281 C   0  0  0  0  0  3  0  0  0  0  0  0
    3.5802    9.4765    8.5491 C   0  0  0  0  0  0  0  0  0  0  0  0
    3.9131    9.2744    7.2258 O   0  0  0  0  0  0  0  0  0  0  0  0
    5.1811    9.7642    6.9120 C   0  0  2  0  0  0  0  0  0  0  0  0
    6.1267    9.6444    8.0629 C   0  0  1  0  0  0  0  0  0  0  0  0
    7.5118    8.5647    7.7011 S   0  0  0  0  0  0  0  0  0  0  0  0
    9.3284    9.2959    8.5385 S   0  0  0  0  0  2  0  0  0  0  0  0
   10.6928    8.9991    7.3935 C   0  0  0  0  0  0  0  0  0  0  0  0
   11.8018   10.0064    7.5789 C   0  0  0  0  0  0  0  0  0  0  0  0
   11.7439   10.6527    8.9306 C   0  0  0  0  0  0  0  0  0  0  0  0
   13.0233   10.3390    9.6920 C   0  0  1  0  0  0  0  0  0  0  0  0
   14.0913   10.0478    8.6461 C   0  0  0  0  0  0  0  0  0  0  0  0
   13.4575   11.5192   10.5509 C   0  0  0  0  0  0  0  0  0  0  0  0
   12.3014   11.8436   11.4691 C   0  0  1  0  0  0  0  0  0  0  0  0
   12.3429   10.8974   12.9553 S   0  0  0  0  0  1  0  0  0  0  0  0
   12.1547   13.3177   11.7112 C   0  0  2  0  0  0  0  0  0  0  0  0
   13.4368   14.0760   11.4259 C   0  0  0  0  0  3  0  0  0  0  0  0
   13.3065   15.3514   12.2224 C   0  0  0  0  0  0  0  0  0  0  0  0
   12.1777   15.1421   13.1955 C   0  0  0  0  0  3  0  0  0  0  0  0
   11.9250   13.6484   13.1724 C   0  0  1  0  0  0  0  0  0  0  0  0
   10.5570   13.2851   13.6483 C   0  0  0  0  0  0  0  0  0  0  0  0
    9.2952   13.5940   12.4421 S   0  0  0  0  0  3  0  0  0  0  0  0
    9.3216   12.3958   11.2566 O   0  0  0  0  0  0  0  0  0  0  0  0
    7.7247   13.5660   13.2919 C   0  0  0  0  0  0  0  0  0  0  0  0
    6.5892   13.7332   12.3367 C   0  0  2  0  0  0  0  0  0  0  0  0
    7.0319   14.3846   11.0764 C   0  0  0  0  0  3  0  0  0  0  0  0
    6.5749   13.5400    9.9083 C   0  0  2  0  0  0  0  0  0  0  0  0
    5.8970   14.4761    8.9104 C   0  0  2  0  0  0  0  0  0  0  0  0
    6.8776   14.9520    7.8641 C   0  0  0  0  0  0  0  0  0  0  0  0
    6.3594   14.5782    6.5148 C   0  0  1  0  0  0  0  0  0  0  0  0
    6.0088   16.0229    5.4802 S   0  0  0  0  0  0  0  0  0  0  0  0
    7.2121   13.5640    5.7963 C   0  0  0  0  0  0  0  0  0  0  0  0
    6.3006   12.7780    4.8655 C   0  0  0  0  0  0  0  0  0  0  0  0
    6.1924   11.3440    5.3364 C   0  0  1  0  0  0  0  0  0  0  0  0
    7.5117   10.9614    5.9389 C   0  0  0  0  0  0  0  0  0  0  0  0
    5.0959   11.1559    6.3404 C   0  0  1  0  0  0  0  0  0  0  0  0
    3.8561   11.2411    5.6799 O   0  0  0  0  0  0  0  0  0  0  0  0
    3.4666   12.5675    5.4976 C   0  0  0  0  0  0  0  0  0  0  0  0
    3.2136   13.2242    6.8602 C   0  0  0  0  0  3  0  0  0  0  0  0
    2.9623   14.6968    6.5917 C   0  0  0  0  0  0  0  0  0  0  0  0
    2.5687   15.4399    7.8259 C   0  0  0  0  0  0  0  0  0  0  0  0
    3.7049   16.0743    8.5578 C   0  0  0  0  0  3  0  0  0  0  0  0
    4.7348   15.3722    9.4520 S   0  0  2  0  0  0  0  0  0  0  0  0
    5.2637   15.9789   11.1075 C   0  0  0  0  0  3  0  0  0  0  0  0
  1  2  1  0
  2  3  1  0
  2  4  1  1
  4  5  1  0
  5  6  1  0
  6  7  1  0
  7  8  1  1
  7  9  1  0
  9 10  1  0
 10 11  1  0
 11 12  1  0
 12 13  1  6
 12 14  1  0
 14 15  1  0
 15 16  1  1
 17 15  1  1
 17 18  1  0
 18 19  1  6
 19 20  1  0
 20 21  1  0
 21 22  1  0
 22 23  1  0
 23 24  1  0
 24 25  1  0
 25 26  1  0
 27 26  1  1
 27 28  1  0
 28 29  1  6
 29 30  1  0
 30 31  1  0
 31 32  1  0
 32 33  1  0
 33 34  1  0
 34 35  1  6
 34 36  1  0
 36 37  1  0
 37 38  1  1
 37 39  1  0
 39 40  1  1
 40 41  1  0
 41 42  1  0
 43 42  1  6
 43 44  1  0
 44 45  1  0
 45 46  1  6
 45 47  1  0
 48 47  1  1
 48 49  1  0
 50 49  1  1
 50 51  1  0
 51 52  1  1
 52 53  1  0
 53 54  1  6
 53 55  1  0
 55 56  1  0
 56 57  1  0
 57 58  1  1
 57 59  1  0
 59 60  1  6
 60 61  1  0
 61 62  1  0
 62 63  1  0
 63 64  1  0
 64 65  1  0
 66 65  1  6
 66 67  1  0
 28  1  1  0
 50  3  1  0
 48 17  1  0
 67 18  1  0
 59 27  1  0
 43 39  1  0
 66 51  1  0
M  RAD  8   9   2  24   2  30   2  38   3  40   2  42   2  49   2  62   2
M  CHG  3  30   1  38   1  45   1
M  RAD  2  65   2  67   2
M  END
>  <docking_score>  (1) 
87.215999999999994

$$$$
