
     RDKit          3D

 32 34  0  0  0  0  0  0  0  0999 V2000
   18.2094   -3.9149   -1.8627 C   0  0  0  0  0  0  0  0  0  0  0  0
   16.7258   -3.8574   -1.7896 C   0  0  1  0  0  0  0  0  0  0  0  0
   16.1531   -4.5679   -0.6088 C   0  0  0  0  0  0  0  0  0  0  0  0
   16.2538   -2.4365   -1.9366 C   0  0  0  0  0  0  0  0  0  0  0  0
   15.2196   -2.2681   -3.0199 C   0  0  0  0  0  0  0  0  0  0  0  0
   15.4313   -0.9416   -3.7269 C   0  0  0  0  0  0  0  0  0  0  0  0
   15.2786   -1.1030   -5.2076 C   0  0  1  0  0  0  0  0  0  0  0  0
   14.2761   -0.1826   -5.8258 C   0  0  0  0  0  0  0  0  0  0  0  0
   16.6304   -1.0586   -5.8929 C   0  0  0  0  0  3  0  0  0  0  0  0
   16.5795   -1.5398   -7.3111 C   0  0  0  0  0  0  0  0  0  0  0  0
   17.5240   -2.6895   -7.5828 C   0  0  0  0  0  0  0  0  0  0  0  0
   17.5088   -3.7092   -6.4636 C   0  0  2  0  0  0  0  0  0  0  0  0
   16.0909   -3.7781   -5.9390 C   0  0  0  0  0  0  0  0  0  0  0  0
   18.3879   -3.1983   -5.3746 C   0  0  1  0  0  0  0  0  0  0  0  0
   18.6650   -4.3021   -4.3365 C   0  0  0  0  0  0  0  0  0  0  0  0
   18.7006   -5.6380   -4.9187 C   0  0  1  0  0  0  0  0  0  0  0  0
   19.7522   -6.5783   -4.4774 C   0  0  0  0  0  1  0  0  0  0  0  0
   17.1259   -6.5207   -4.9373 S   0  0  0  0  0  0  0  0  0  0  0  0
   17.3951   -8.2020   -5.4980 C   0  0  0  0  0  0  0  0  0  0  0  0
   17.3256   -8.2678   -6.9927 C   0  0  0  0  0  0  0  0  0  0  0  0
   18.0959   -9.4778   -7.5098 C   0  0  0  0  0  0  0  0  0  0  0  0
   19.5887   -9.2207   -7.3846 C   0  0  0  0  0  0  0  0  0  0  0  0
   19.9955   -8.0970   -8.3117 C   0  0  0  0  0  0  0  0  0  0  0  0
   21.3549   -7.1475   -7.5359 S   0  0  0  0  0  0  0  0  0  0  0  0
   21.3819   -5.5196   -8.2844 C   0  0  0  0  0  0  0  0  0  0  0  0
   21.0213   -4.4162   -7.2844 C   0  0  0  0  0  0  0  0  0  0  0  0
   20.2933   -3.3557   -8.0674 C   0  0  0  0  0  0  0  0  0  0  0  0
   19.8224   -2.2178   -7.1917 C   0  0  0  0  0  0  0  0  0  0  0  0
   19.7129   -2.6977   -5.7950 C   0  0  1  0  0  0  0  0  0  0  0  0
   20.1784   -1.6673   -4.7724 C   0  0  0  0  0  0  0  0  0  0  0  0
   20.0498   -2.3925   -3.0823 S   0  0  0  0  0  0  0  0  0  0  0  0
   18.8110   -3.7526   -3.1812 C   0  0  0  0  0  0  0  0  0  0  0  0
  1  2  1  0
  2  3  1  1
  2  4  1  0
  4  5  1  0
  5  6  1  0
  6  7  1  0
  7  8  1  6
  7  9  1  0
  9 10  1  0
 10 11  1  0
 11 12  1  0
 12 13  1  1
 12 14  1  0
 14 15  1  1
 15 16  1  0
 16 17  1  1
 16 18  1  0
 18 19  1  0
 19 20  1  0
 20 21  1  0
 21 22  1  0
 22 23  1  0
 23 24  1  0
 24 25  1  0
 25 26  1  0
 26 27  1  0
 27 28  1  0
 29 28  1  6
 29 30  1  0
 30 31  1  0
 31 32  1  0
 32  1  1  0
 29 14  1  0
 15 32  2  0
M  RAD  2   9   2  17   2
M  END
>  <docking_score>  (1) 
-4.4000000000000004

$$$$

     RDKit          3D

 32 34  0  0  0  0  0  0  0  0999 V2000
   15.2958   -2.1979   -4.3547 C   0  0  0  0  0  0  0  0  0  0  0  0
   15.4168   -1.2292   -5.4757 C   0  0  1  0  0  0  0  0  0  0  0  0
   14.1172   -0.9040   -6.1335 C   0  0  0  0  0  0  0  0  0  0  0  0
   16.1987   -0.0216   -5.0358 C   0  0  0  0  0  0  0  0  0  0  0  0
   17.3584    0.2931   -5.9455 C   0  0  0  0  0  0  0  0  0  0  0  0
   18.5300    0.7991   -5.1235 C   0  0  0  0  0  0  0  0  0  0  0  0
   19.8122    0.1943   -5.6051 C   0  0  1  0  0  0  0  0  0  0  0  0
   20.8661    1.1923   -5.9627 C   0  0  0  0  0  0  0  0  0  0  0  0
   20.3000   -0.8665   -4.6377 C   0  0  0  0  0  3  0  0  0  0  0  0
   21.3803   -1.7288   -5.2164 C   0  0  0  0  0  0  0  0  0  0  0  0
   21.0377   -3.2019   -5.1996 C   0  0  0  0  0  0  0  0  0  0  0  0
   19.6024   -3.4525   -5.6118 C   0  0  2  0  0  0  0  0  0  0  0  0
   19.2564   -2.4321   -6.6746 C   0  0  0  0  0  0  0  0  0  0  0  0
   18.7403   -3.2026   -4.4226 C   0  0  1  0  0  0  0  0  0  0  0  0
   17.3107   -3.7205   -4.6689 C   0  0  0  0  0  0  0  0  0  0  0  0
   17.2690   -4.8936   -5.5333 C   0  0  1  0  0  0  0  0  0  0  0  0
   16.3608   -6.0050   -5.1805 C   0  0  0  0  0  1  0  0  0  0  0  0
   17.0870   -4.5541   -7.2971 S   0  0  0  0  0  0  0  0  0  0  0  0
   16.8550   -6.0983   -8.1774 C   0  0  0  0  0  0  0  0  0  0  0  0
   18.1810   -6.6933   -8.5395 C   0  0  0  0  0  0  0  0  0  0  0  0
   18.0531   -8.1994   -8.7396 C   0  0  0  0  0  0  0  0  0  0  0  0
   17.8850   -8.8782   -7.3901 C   0  0  0  0  0  0  0  0  0  0  0  0
   19.1481   -8.7174   -6.5737 C   0  0  0  0  0  0  0  0  0  0  0  0
   18.7000   -8.5806   -4.8040 S   0  0  0  0  0  0  0  0  0  0  0  0
   20.0560   -7.7711   -3.9572 C   0  0  0  0  0  0  0  0  0  0  0  0
   19.6591   -6.3958   -3.4107 C   0  0  0  0  0  0  0  0  0  0  0  0
   20.8903   -5.5331   -3.4992 C   0  0  0  0  0  0  0  0  0  0  0  0
   20.6320   -4.1164   -3.0416 C   0  0  0  0  0  0  0  0  0  0  0  0
   19.1843   -3.8278   -3.1597 C   0  0  1  0  0  0  0  0  0  0  0  0
   18.6459   -2.9950   -2.0018 C   0  0  0  0  0  0  0  0  0  0  0  0
   16.8329   -2.7478   -2.2270 S   0  0  0  0  0  0  0  0  0  0  0  0
   16.4855   -2.9730   -4.0223 C   0  0  0  0  0  0  0  0  0  0  0  0
  1  2  1  0
  2  3  1  1
  2  4  1  0
  4  5  1  0
  5  6  1  0
  6  7  1  0
  7  8  1  1
  7  9  1  0
  9 10  1  0
 10 11  1  0
 11 12  1  0
 12 13  1  6
 12 14  1  0
 14 15  1  6
 15 16  1  0
 16 17  1  1
 16 18  1  0
 18 19  1  0
 19 20  1  0
 20 21  1  0
 21 22  1  0
 22 23  1  0
 23 24  1  0
 24 25  1  0
 25 26  1  0
 26 27  1  0
 27 28  1  0
 29 28  1  6
 29 30  1  0
 30 31  1  0
 31 32  1  0
 32  1  1  0
 29 14  1  0
 15 32  2  0
M  RAD  2   9   2  17   2
M  END
>  <docking_score>  (2) 
-2.173

$$$$
