
     RDKit          3D

 15 15  0  0  0  0  0  0  0  0999 V2000
   17.4096   -1.8705   -2.4938 C   0  0  0  0  0  0  0  0  0  0  0  0
   16.1544   -2.5857   -2.8920 C   0  0  1  0  0  0  0  0  0  0  0  0
   15.2686   -1.5954   -3.5913 C   0  0  0  0  0  0  0  0  0  0  0  0
   15.6791   -1.5366   -5.0291 C   0  0  2  0  0  0  0  0  0  0  0  0
   15.1762   -0.4729   -5.7196 O   0  0  0  0  0  0  0  0  0  0  0  0
   15.2573   -2.8834   -5.6300 C   0  0  2  0  0  0  0  0  0  0  0  0
   13.9410   -3.1767   -5.2604 O   0  0  0  0  0  0  0  0  0  0  0  0
   16.1843   -3.9026   -5.0651 C   0  0  1  0  0  0  0  0  0  0  0  0
   17.3636   -3.8824   -5.8128 O   0  0  0  0  0  0  0  0  0  0  0  0
   16.3892   -3.8667   -3.6085 C   0  0  1  0  0  0  0  0  0  0  0  0
   17.7515   -4.2902   -3.2878 N   0  0  0  0  0  0  0  0  0  0  0  0
   17.7287   -5.6632   -2.7749 C   0  0  0  0  0  3  0  0  0  0  0  0
   18.6877   -6.4320   -3.5907 C   0  0  0  0  0  0  0  0  0  0  0  0
   18.3618   -7.2136   -4.5996 C   0  0  0  0  0  0  0  0  0  0  0  0
   19.4402   -7.8535   -5.2386 O   0  0  0  0  0  0  0  0  0  0  0  0
  2  1  1  6
  2  3  1  0
  3  4  1  0
  4  5  1  6
  4  6  1  0
  6  7  1  1
  6  8  1  0
  8  9  1  6
  8 10  1  0
 10 11  1  6
 11 12  1  0
 12 13  1  0
 13 14  2  3
 14 15  1  0
 10  2  1  0
M  RAD  1  12   2
M  END
>  <docking_score>  (1) 
-4.0419999999999998

$$$$

     RDKit          3D

 15 15  0  0  0  0  0  0  0  0999 V2000
   16.4176   -5.1602   -2.9982 C   0  0  0  0  0  0  0  0  0  0  0  0
   16.5610   -3.7270   -2.5847 C   0  0  1  0  0  0  0  0  0  0  0  0
   17.6532   -3.6569   -1.5568 C   0  0  0  0  0  0  0  0  0  0  0  0
   18.9637   -3.5705   -2.2741 C   0  0  2  0  0  0  0  0  0  0  0  0
   20.0558   -3.8043   -1.4906 O   0  0  0  0  0  0  0  0  0  0  0  0
   18.9861   -2.1785   -2.9180 C   0  0  2  0  0  0  0  0  0  0  0  0
   18.6055   -1.2148   -1.9790 O   0  0  0  0  0  0  0  0  0  0  0  0
   18.0022   -2.2180   -4.0350 C   0  0  1  0  0  0  0  0  0  0  0  0
   18.6238   -2.7954   -5.1443 O   0  0  0  0  0  0  0  0  0  0  0  0
   16.6778   -2.7778   -3.7226 C   0  0  1  0  0  0  0  0  0  0  0  0
   16.1343   -3.4548   -4.8991 N   0  0  0  0  0  0  0  0  0  0  0  0
   15.4529   -2.4782   -5.7539 C   0  0  0  0  0  3  0  0  0  0  0  0
   14.4648   -1.7910   -4.9010 C   0  0  0  0  0  0  0  0  0  0  0  0
   14.0797   -0.5405   -5.0517 C   0  0  0  0  0  0  0  0  0  0  0  0
   13.1249   -0.0879   -4.1219 O   0  0  0  0  0  0  0  0  0  0  0  0
  2  1  1  6
  2  3  1  0
  3  4  1  0
  4  5  1  1
  4  6  1  0
  6  7  1  1
  6  8  1  0
  8  9  1  6
  8 10  1  0
 10 11  1  6
 11 12  1  0
 12 13  1  0
 13 14  2  3
 14 15  1  0
 10  2  1  0
M  RAD  1  12   2
M  END
>  <docking_score>  (2) 
-3.8889999999999998

$$$$

     RDKit          3D

 15 15  0  0  0  0  0  0  0  0999 V2000
    6.7053   12.6819    0.9785 C   0  0  0  0  0  0  0  0  0  0  0  0
    5.8414   12.6380    2.2021 C   0  0  1  0  0  0  0  0  0  0  0  0
    4.9984   11.3982    2.1199 C   0  0  0  0  0  0  0  0  0  0  0  0
    5.7991   10.2537    2.6568 C   0  0  2  0  0  0  0  0  0  0  0  0
    5.2888    9.0211    2.3712 O   0  0  0  0  0  0  0  0  0  0  0  0
    5.9170   10.5091    4.1647 C   0  0  2  0  0  0  0  0  0  0  0  0
    4.6620   10.8297    4.6915 O   0  0  0  0  0  0  0  0  0  0  0  0
    6.8456   11.6623    4.3226 C   0  0  1  0  0  0  0  0  0  0  0  0
    8.1549   11.1816    4.2517 O   0  0  0  0  0  0  0  0  0  0  0  0
    6.5838   12.8358    3.4745 C   0  0  1  0  0  0  0  0  0  0  0  0
    7.8443   13.4939    3.1338 N   0  0  0  0  0  0  0  0  0  0  0  0
    8.0089   14.6931    3.9606 C   0  0  0  0  0  3  0  0  0  0  0  0
    9.4261   15.0875    3.8507 C   0  0  0  0  0  0  0  0  0  0  0  0
   10.3926   14.6499    4.6312 C   0  0  0  0  0  0  0  0  0  0  0  0
   11.6734   15.1597    4.3477 O   0  0  0  0  0  0  0  0  0  0  0  0
  2  1  1  6
  2  3  1  0
  3  4  1  0
  4  5  1  1
  4  6  1  0
  6  7  1  6
  6  8  1  0
  8  9  1  6
  8 10  1  0
 10 11  1  6
 11 12  1  0
 12 13  1  0
 13 14  2  3
 14 15  1  0
 10  2  1  0
M  RAD  1  12   2
M  END
>  <docking_score>  (3) 
-3.8370000000000002

$$$$
