
     RDKit          3D

 13 14  0  0  0  0  0  0  0  0999 V2000
   21.3825    8.4046   -0.8947 C   0  0  0  0  0  0  0  0  0  0  0  0
   21.3185    9.6162   -0.2595 O   0  0  0  0  0  0  0  0  0  0  0  0
   20.1067    9.7559    0.4315 C   0  0  0  0  0  3  0  0  0  0  0  0
   19.2783   10.6194   -0.2865 O   0  0  0  0  0  0  0  0  0  0  0  0
   19.6401   10.5572   -1.6246 C   0  0  2  0  0  0  0  0  0  0  0  0
   19.0565   11.6751   -2.4394 C   0  0  0  0  0  0  0  0  0  0  0  0
   19.3717    9.2033   -2.1736 C   0  0  0  0  0  3  0  0  0  0  0  0
   20.5622    8.2883   -2.1351 C   0  0  2  0  0  0  0  0  0  0  0  0
   20.1479    6.8411   -2.2972 C   0  0  0  0  0  3  0  0  0  0  0  0
   20.3481    6.4270   -3.7392 C   0  0  0  0  0  0  0  0  0  0  0  0
   19.1232    6.5775   -4.5689 C   0  0  1  0  0  0  0  0  0  0  0  0
   19.2400    6.5563   -6.0716 C   0  0  0  0  0  0  0  0  0  0  0  0
   18.7914    5.4214   -5.4127 O   0  0  0  0  0  0  0  0  0  0  0  0
  1  2  1  0
  2  3  1  0
  3  4  1  0
  4  5  1  0
  5  6  1  6
  5  7  1  0
  7  8  1  0
  8  9  1  1
  9 10  1  0
 11 10  1  1
 11 12  1  0
 11 13  1  0
  8  1  1  0
 13 12  1  0
M  RAD  3   3   2   7   2   9   2
M  END
>  <docking_score>  (1) 
-4.2519999999999998

$$$$

     RDKit          3D

 13 14  0  0  0  0  0  0  0  0999 V2000
   17.3666   -4.0282   -2.2141 C   0  0  0  0  0  0  0  0  0  0  0  0
   17.6607   -5.3532   -2.3967 O   0  0  0  0  0  0  0  0  0  0  0  0
   18.2513   -5.5670   -3.6500 C   0  0  0  0  0  3  0  0  0  0  0  0
   17.3060   -6.1454   -4.4981 O   0  0  0  0  0  0  0  0  0  0  0  0
   16.0432   -5.7699   -4.0628 C   0  0  2  0  0  0  0  0  0  0  0  0
   14.9461   -6.5881   -4.6799 C   0  0  0  0  0  0  0  0  0  0  0  0
   15.8586   -4.3029   -4.2059 C   0  0  0  0  0  3  0  0  0  0  0  0
   16.1736   -3.5293   -2.9576 C   0  0  2  0  0  0  0  0  0  0  0  0
   16.3819   -2.0604   -3.2599 C   0  0  0  0  0  3  0  0  0  0  0  0
   15.5442   -1.6781   -4.4611 C   0  0  0  0  0  0  0  0  0  0  0  0
   14.2568   -1.0290   -4.0967 C   0  0  1  0  0  0  0  0  0  0  0  0
   14.0265    0.4151   -4.4624 C   0  0  0  0  0  0  0  0  0  0  0  0
   13.4385   -0.5785   -5.2307 O   0  0  0  0  0  0  0  0  0  0  0  0
  1  2  1  0
  2  3  1  0
  3  4  1  0
  4  5  1  0
  5  6  1  6
  5  7  1  0
  7  8  1  0
  8  9  1  6
  9 10  1  0
 11 10  1  6
 11 12  1  0
 11 13  1  0
  8  1  1  0
 13 12  1  0
M  RAD  3   3   2   7   2   9   2
M  END
>  <docking_score>  (2) 
-3.9660000000000002

$$$$

     RDKit          3D

 13 14  0  0  0  0  0  0  0  0999 V2000
   16.2412   -3.5507   -4.8079 C   0  0  0  0  0  0  0  0  0  0  0  0
   15.7573   -2.9100   -5.9173 O   0  0  0  0  0  0  0  0  0  0  0  0
   16.3942   -1.6745   -6.0997 C   0  0  0  0  0  3  0  0  0  0  0  0
   15.5204   -0.6581   -5.7114 O   0  0  0  0  0  0  0  0  0  0  0  0
   14.6405   -1.1761   -4.7719 C   0  0  2  0  0  0  0  0  0  0  0  0
   13.4558   -0.2863   -4.5292 C   0  0  0  0  0  0  0  0  0  0  0  0
   15.3684   -1.5659   -3.5369 C   0  0  0  0  0  3  0  0  0  0  0  0
   15.7644   -3.0142   -3.5003 C   0  0  2  0  0  0  0  0  0  0  0  0
   16.8395   -3.2634   -2.4638 C   0  0  0  0  0  3  0  0  0  0  0  0
   17.2731   -4.7116   -2.5380 C   0  0  0  0  0  0  0  0  0  0  0  0
   18.7470   -4.8887   -2.4485 C   0  0  1  0  0  0  0  0  0  0  0  0
   19.4451   -5.7912   -3.4336 C   0  0  0  0  0  0  0  0  0  0  0  0
   19.5071   -4.4175   -3.6142 O   0  0  0  0  0  0  0  0  0  0  0  0
  1  2  1  0
  2  3  1  0
  3  4  1  0
  4  5  1  0
  5  6  1  1
  5  7  1  0
  7  8  1  0
  8  9  1  1
  9 10  1  0
 11 10  1  6
 11 12  1  0
 11 13  1  0
  8  1  1  0
 13 12  1  0
M  RAD  3   3   2   7   2   9   2
M  END
>  <docking_score>  (3) 
-3.8159999999999998

$$$$
