
     RDKit          3D

 16 15  0  0  0  0  0  0  0  0999 V2000
   16.4576   -7.5652   -5.1793 O   0  0  0  0  0  0  0  0  0  0  0  0
   15.4589   -6.8446   -5.0785 N   0  0  0  0  0  4  0  0  0  0  0  0
   14.4164   -7.2168   -4.2982 O   0  0  0  0  0  1  0  0  0  0  0  0
   15.4132   -5.6259   -5.7858 C   0  0  0  0  0  0  0  0  0  0  0  0
   14.9976   -4.5389   -5.1767 C   0  0  0  0  0  0  0  0  0  0  0  0
   14.9141   -3.2368   -5.8176 C   0  0  0  0  0  0  0  0  0  0  0  0
   15.2763   -2.1617   -5.1692 C   0  0  0  0  0  0  0  0  0  0  0  0
   15.7713   -2.2554   -3.7877 C   0  0  0  0  0  0  0  0  0  0  0  0
   17.1856   -2.0684   -3.6559 N   0  0  0  0  0  2  0  0  0  0  0  0
   17.5645   -2.4917   -2.3459 C   0  0  0  0  0  0  0  0  0  0  0  0
   18.0782   -3.6350   -2.1040 N   0  0  0  0  0  0  0  0  0  0  0  0
   18.3354   -4.6236   -3.1035 C   0  0  0  0  0  0  0  0  0  0  0  0
   17.9108   -5.8966   -2.7207 O   0  0  0  0  0  1  0  0  0  0  0  0
   15.1853   -0.8505   -5.8334 C   0  0  0  0  0  0  0  0  0  0  0  0
   14.2423    0.0577   -5.1572 C   0  0  0  0  0  0  0  0  0  0  0  0
   13.0981   -0.4534   -4.7133 C   0  0  0  0  0  0  0  0  0  0  0  0
  1  2  2  0
  2  3  1  0
  2  4  1  0
  4  5  2  3
  5  6  1  0
  6  7  2  3
  7  8  1  0
  8  9  1  0
  9 10  1  0
 10 11  2  3
 11 12  1  0
 12 13  1  0
  7 14  1  0
 14 15  1  0
 15 16  2  0
M  CHG  4   2   1   3  -1   9   1  13  -1
M  RAD  1   9   3
M  END
>  <docking_score>  (1) 
-3.9129999999999998

$$$$

     RDKit          3D

 16 15  0  0  0  0  0  0  0  0999 V2000
    6.1326    8.0336    5.4910 O   0  0  0  0  0  0  0  0  0  0  0  0
    5.3104    8.8352    5.9469 N   0  0  0  0  0  4  0  0  0  0  0  0
    4.3764    8.4311    6.8407 O   0  0  0  0  0  1  0  0  0  0  0  0
    5.3523   10.1804    5.5272 C   0  0  0  0  0  0  0  0  0  0  0  0
    6.5078   10.7308    5.2318 C   0  0  0  0  0  0  0  0  0  0  0  0
    6.6561   12.1080    4.7906 C   0  0  0  0  0  0  0  0  0  0  0  0
    7.1110   12.3684    3.5937 C   0  0  0  0  0  0  0  0  0  0  0  0
    7.4774   11.2751    2.6811 C   0  0  0  0  0  0  0  0  0  0  0  0
    6.6016   11.1293    1.5567 N   0  0  0  0  0  2  0  0  0  0  0  0
    5.7749    9.9884    1.7888 C   0  0  0  0  0  0  0  0  0  0  0  0
    4.5268   10.0720    2.0434 N   0  0  0  0  0  0  0  0  0  0  0  0
    3.8087   11.3048    2.1272 C   0  0  0  0  0  0  0  0  0  0  0  0
    3.0804   11.4219    3.3118 O   0  0  0  0  0  1  0  0  0  0  0  0
    7.2550   13.7692    3.1627 C   0  0  0  0  0  0  0  0  0  0  0  0
    8.6124   14.0703    2.6747 C   0  0  0  0  0  0  0  0  0  0  0  0
    9.6091   14.0407    3.5540 C   0  0  0  0  0  0  0  0  0  0  0  0
  1  2  2  0
  2  3  1  0
  2  4  1  0
  4  5  2  3
  5  6  1  0
  6  7  2  3
  7  8  1  0
  8  9  1  0
  9 10  1  0
 10 11  2  3
 11 12  1  0
 12 13  1  0
  7 14  1  0
 14 15  1  0
 15 16  2  0
M  CHG  4   2   1   3  -1   9   1  13  -1
M  RAD  1   9   3
M  END
>  <docking_score>  (2) 
-3.4249999999999998

$$$$

     RDKit          3D

 16 15  0  0  0  0  0  0  0  0999 V2000
   18.4431   -7.2953   -3.8116 O   0  0  0  0  0  0  0  0  0  0  0  0
   18.2316   -6.2808   -4.4844 N   0  0  0  0  0  4  0  0  0  0  0  0
   17.4714   -6.3421   -5.6036 O   0  0  0  0  0  1  0  0  0  0  0  0
   18.7906   -5.0528   -4.0756 C   0  0  0  0  0  0  0  0  0  0  0  0
   18.7622   -4.7193   -2.8054 C   0  0  0  0  0  0  0  0  0  0  0  0
   19.3107   -3.4778   -2.2849 C   0  0  0  0  0  0  0  0  0  0  0  0
   18.5420   -2.4315   -2.1375 C   0  0  0  0  0  0  0  0  0  0  0  0
   17.1171   -2.4967   -2.4951 C   0  0  0  0  0  0  0  0  0  0  0  0
   16.8034   -1.9196   -3.7682 N   0  0  0  0  0  2  0  0  0  0  0  0
   15.3843   -1.7858   -3.8523 C   0  0  0  0  0  0  0  0  0  0  0  0
   14.6575   -2.5229   -4.5993 N   0  0  0  0  0  0  0  0  0  0  0  0
   15.1681   -3.5629   -5.4361 C   0  0  0  0  0  0  0  0  0  0  0  0
   15.0157   -3.2819   -6.7945 O   0  0  0  0  0  1  0  0  0  0  0  0
   19.1139   -1.1816   -1.6087 C   0  0  0  0  0  0  0  0  0  0  0  0
   20.3558   -0.7948   -2.3011 C   0  0  0  0  0  0  0  0  0  0  0  0
   20.2466   -0.1209   -3.4419 C   0  0  0  0  0  0  0  0  0  0  0  0
  1  2  2  0
  2  3  1  0
  2  4  1  0
  4  5  2  3
  5  6  1  0
  6  7  2  3
  7  8  1  0
  8  9  1  0
  9 10  1  0
 10 11  2  3
 11 12  1  0
 12 13  1  0
  7 14  1  0
 14 15  1  0
 15 16  2  0
M  CHG  4   2   1   3  -1   9   1  13  -1
M  RAD  1   9   3
M  END
>  <docking_score>  (3) 
-3.3479999999999999

$$$$
