
     RDKit          3D

 23 25  0  0  0  0  0  0  0  0999 V2000
   19.0898   -8.3892   -4.4454 C   0  0  0  0  0  0  0  0  0  0  0  0
   18.2781   -7.7831   -5.5633 C   0  0  0  0  0  0  0  0  0  0  0  0
   18.1527   -8.7342   -6.7322 C   0  0  0  0  0  0  0  0  0  0  0  0
   16.9651   -7.2949   -5.0805 C   0  0  0  0  0  0  0  0  0  0  0  0
   16.8157   -6.1819   -4.3740 C   0  0  0  0  0  0  0  0  0  0  0  0
   17.9429   -5.3273   -4.0035 C   0  0  2  0  0  0  0  0  0  0  0  0
   17.6106   -4.3494   -2.9429 C   0  0  2  0  0  0  0  0  0  0  0  0
   16.2523   -4.6068   -2.3458 C   0  0  0  0  0  0  0  0  0  0  0  0
   17.8187   -2.9139   -3.3386 C   0  0  2  0  0  0  0  0  0  0  0  0
   18.3317   -2.2323   -2.2362 O   0  0  0  0  0  0  0  0  0  0  0  0
   16.5457   -2.2249   -3.7411 C   0  0  0  0  0  2  0  0  0  0  0  0
   15.8871   -2.8756   -4.9374 C   0  0  1  0  0  0  0  0  0  0  0  0
   14.3789   -2.7937   -4.8579 C   0  0  0  0  0  0  0  0  0  0  0  0
   16.3983   -2.2858   -6.2382 C   0  0  2  0  0  0  0  0  0  0  0  0
   15.3863   -1.2575   -6.7340 C   0  0  0  0  0  3  0  0  0  0  0  0
   14.7835   -0.4628   -5.6200 C   0  0  0  0  0  0  0  0  0  0  0  0
   14.0401   -1.3215   -4.6131 C   0  0  2  0  0  0  0  0  0  0  0  0
   14.5596   -0.9776   -3.3517 O   0  0  0  0  0  0  0  0  0  0  0  0
   16.3815   -3.3648   -7.2325 N   0  0  0  0  0  0  0  0  0  0  0  0
   17.6519   -4.0605   -7.2761 C   0  0  0  0  0  3  0  0  0  0  0  0
   18.4772   -3.7796   -6.0389 C   0  0  2  0  0  0  0  0  0  0  0  0
   19.7490   -4.5844   -5.9962 C   0  0  0  0  0  0  0  0  0  0  0  0
   18.6054   -4.7358   -5.0818 C   0  0  0  0  0  0  0  0  0  0  0  0
  1  2  1  0
  2  3  1  0
  2  4  1  0
  4  5  2  3
  6  5  1  6
  6  7  1  0
  7  8  1  6
  7  9  1  0
  9 10  1  1
  9 11  1  0
 12 11  1  1
 12 13  1  0
 12 14  1  0
 14 15  1  6
 15 16  1  0
 16 17  1  0
 17 18  1  1
 14 19  1  0
 19 20  1  0
 21 20  1  6
 21 22  1  0
 22 23  2  0
 23  6  1  0
 17 13  1  0
 23 21  1  0
M  RAD  3  11   3  15   2  20   2
M  END
>  <docking_score>  (1) 
-5.6379999999999999

$$$$

     RDKit          3D

 23 25  0  0  0  0  0  0  0  0999 V2000
   21.1124    0.3628   -4.0668 C   0  0  0  0  0  0  0  0  0  0  0  0
   19.9307    0.6393   -4.9629 C   0  0  0  0  0  0  0  0  0  0  0  0
   20.0515    1.9887   -5.6345 C   0  0  0  0  0  0  0  0  0  0  0  0
   19.7102   -0.4622   -5.9292 C   0  0  0  0  0  0  0  0  0  0  0  0
   18.6490   -1.2577   -5.8985 C   0  0  0  0  0  0  0  0  0  0  0  0
   17.5900   -1.1196   -4.8997 C   0  0  2  0  0  0  0  0  0  0  0  0
   17.7214   -2.0713   -3.7734 C   0  0  2  0  0  0  0  0  0  0  0  0
   19.0316   -2.8129   -3.8134 C   0  0  0  0  0  0  0  0  0  0  0  0
   16.5361   -2.9775   -3.5886 C   0  0  2  0  0  0  0  0  0  0  0  0
   16.3241   -3.1373   -2.2201 O   0  0  0  0  0  0  0  0  0  0  0  0
   16.7451   -4.3453   -4.1740 C   0  0  0  0  0  2  0  0  0  0  0  0
   16.9869   -4.3066   -5.6668 C   0  0  1  0  0  0  0  0  0  0  0  0
   17.9419   -5.3941   -6.1063 C   0  0  0  0  0  0  0  0  0  0  0  0
   15.6836   -4.3791   -6.4396 C   0  0  2  0  0  0  0  0  0  0  0  0
   15.4768   -5.8169   -6.9060 C   0  0  0  0  0  3  0  0  0  0  0  0
   15.9173   -6.8191   -5.8874 C   0  0  0  0  0  0  0  0  0  0  0  0
   17.3908   -6.7052   -5.5411 C   0  0  2  0  0  0  0  0  0  0  0  0
   17.4536   -6.6144   -4.1386 O   0  0  0  0  0  0  0  0  0  0  0  0
   15.8682   -3.5915   -7.6639 N   0  0  0  0  0  0  0  0  0  0  0  0
   15.4517   -2.2167   -7.4733 C   0  0  0  0  0  3  0  0  0  0  0  0
   15.3450   -1.8715   -6.0036 C   0  0  2  0  0  0  0  0  0  0  0  0
   15.0345   -0.4165   -5.7716 C   0  0  0  0  0  0  0  0  0  0  0  0
   16.2950   -1.0923   -5.4227 C   0  0  0  0  0  0  0  0  0  0  0  0
  1  2  1  0
  2  3  1  0
  2  4  1  0
  4  5  2  3
  6  5  1  6
  6  7  1  0
  7  8  1  6
  7  9  1  0
  9 10  1  1
  9 11  1  0
 12 11  1  1
 12 13  1  0
 12 14  1  0
 14 15  1  6
 15 16  1  0
 16 17  1  0
 17 18  1  1
 14 19  1  0
 19 20  1  0
 21 20  1  6
 21 22  1  0
 22 23  2  0
 23  6  1  0
 17 13  1  0
 23 21  1  0
M  RAD  3  11   3  15   2  20   2
M  END
>  <docking_score>  (2) 
-5.4870000000000001

$$$$

     RDKit          3D

 23 25  0  0  0  0  0  0  0  0999 V2000
   20.5162   -0.7097   -1.1833 C   0  0  0  0  0  0  0  0  0  0  0  0
   20.2431   -0.2176   -2.5829 C   0  0  0  0  0  0  0  0  0  0  0  0
   21.0014    1.0571   -2.8772 C   0  0  0  0  0  0  0  0  0  0  0  0
   20.4909   -1.2755   -3.5904 C   0  0  0  0  0  0  0  0  0  0  0  0
   19.6106   -2.2239   -3.8836 C   0  0  0  0  0  0  0  0  0  0  0  0
   18.3038   -2.3133   -3.2340 C   0  0  2  0  0  0  0  0  0  0  0  0
   18.1175   -3.5651   -2.4660 C   0  0  2  0  0  0  0  0  0  0  0  0
   19.3953   -4.3548   -2.3588 C   0  0  0  0  0  0  0  0  0  0  0  0
   16.9464   -4.3956   -2.9124 C   0  0  2  0  0  0  0  0  0  0  0  0
   16.3468   -4.9410   -1.7784 O   0  0  0  0  0  0  0  0  0  0  0  0
   17.3420   -5.5373   -3.8053 C   0  0  0  0  0  2  0  0  0  0  0  0
   18.0087   -5.0720   -5.0810 C   0  0  1  0  0  0  0  0  0  0  0  0
   19.0698   -6.0454   -5.5437 C   0  0  0  0  0  0  0  0  0  0  0  0
   16.9896   -4.8143   -6.1746 C   0  0  2  0  0  0  0  0  0  0  0  0
   16.9541   -6.0277   -7.0987 C   0  0  0  0  0  3  0  0  0  0  0  0
   17.0957   -7.3181   -6.3565 C   0  0  0  0  0  0  0  0  0  0  0  0
   18.4014   -7.4213   -5.5894 C   0  0  2  0  0  0  0  0  0  0  0  0
   18.0501   -7.7588   -4.2696 O   0  0  0  0  0  0  0  0  0  0  0  0
   17.5096   -3.7126   -6.9926 N   0  0  0  0  0  0  0  0  0  0  0  0
   17.0309   -2.4309   -6.5150 C   0  0  0  0  0  3  0  0  0  0  0  0
   16.4932   -2.5339   -5.1040 C   0  0  2  0  0  0  0  0  0  0  0  0
   16.1023   -1.1962   -4.5342 C   0  0  0  0  0  0  0  0  0  0  0  0
   17.2178   -2.0358   -4.0677 C   0  0  0  0  0  0  0  0  0  0  0  0
  1  2  1  0
  2  3  1  0
  2  4  1  0
  4  5  2  3
  6  5  1  6
  6  7  1  0
  7  8  1  6
  7  9  1  0
  9 10  1  1
  9 11  1  0
 12 11  1  1
 12 13  1  0
 12 14  1  0
 14 15  1  6
 15 16  1  0
 16 17  1  0
 17 18  1  1
 14 19  1  0
 19 20  1  0
 21 20  1  6
 21 22  1  0
 22 23  2  0
 23  6  1  0
 17 13  1  0
 23 21  1  0
M  RAD  3  11   3  15   2  20   2
M  END
>  <docking_score>  (3) 
-5.0979999999999999

$$$$
