
     RDKit          3D

 89 94  0  0  0  0  0  0  0  0999 V2000
    9.2294   12.5813   11.1319 C   0  0  1  0  0  0  0  0  0  0  0  0
    9.9684   13.6480   11.8903 C   0  0  2  0  0  0  0  0  0  0  0  0
   10.5397   14.6321   10.9283 C   0  0  0  0  0  0  0  0  0  0  0  0
   10.9323   13.1242   12.8968 C   0  0  0  0  0  0  0  0  0  0  0  0
   11.4581   14.2416   13.7372 C   0  0  0  0  0  0  0  0  0  0  0  0
   11.9927   15.3914   12.9240 C   0  0  0  0  0  0  0  0  0  0  0  0
   13.3596   15.1421   12.3636 C   0  0  1  0  0  0  0  0  0  0  0  0
   13.6083   16.0747   11.1837 C   0  0  0  0  0  0  0  0  0  0  0  0
   14.4682   15.3535   13.3445 C   0  0  0  0  0  3  0  0  0  0  0  0
   14.2109   14.7756   14.6983 C   0  0  0  0  0  0  0  0  0  0  0  0
   14.9171   13.4675   14.9321 C   0  0  0  0  0  0  0  0  0  0  0  0
   15.8025   13.0743   13.7639 C   0  0  0  0  0  3  0  0  0  0  0  0
   15.6284   11.5902   13.4475 C   0  0  0  0  0  2  0  0  0  0  0  0
   16.5145   10.7273   14.3055 C   0  0  0  0  0  3  0  0  0  0  0  0
   15.7094    9.9275   15.3252 C   0  0  0  0  0  0  0  0  0  0  0  0
   14.2421    9.8587   14.8919 C   0  0  0  0  0  3  0  0  0  0  0  0
   13.7974    8.4172   14.7736 C   0  0  0  0  0  0  0  0  0  0  0  0
   12.8676    8.2473   13.5990 C   0  0  2  0  0  0  0  0  0  0  0  0
   11.6172    8.9157   13.8979 N   0  0  0  0  0  0  0  0  0  0  0  0
   12.6623    6.7811   13.2944 C   0  0  0  0  0  0  0  0  0  0  0  0
   11.3720    6.6251   12.5270 C   0  0  0  0  0  0  0  0  0  0  0  0
   11.5782    6.1467   11.1191 C   0  0  0  0  0  0  0  0  0  0  0  0
   12.0927    4.7152   11.0909 C   0  0  0  0  0  0  0  0  0  0  0  0
   13.0805    4.5744   12.2309 C   0  0  0  0  0  0  0  0  0  0  0  0
   14.3677    4.6437   11.6672 O   0  0  0  0  0  0  0  0  0  0  0  0
   15.2852    4.0781   12.5491 C   0  0  0  0  0  0  0  0  0  0  0  0
   15.6404    5.0296   13.6683 C   0  0  0  0  0  0  0  0  0  0  0  0
   15.9366    6.4242   13.1226 C   0  0  0  0  0  0  0  0  0  0  0  0
   14.8540    6.8559   12.1877 C   0  0  0  0  0  0  0  0  0  0  0  0
   14.7936    8.3426   11.9881 C   0  0  0  0  0  0  0  0  0  0  0  0
   13.4893    8.9333   12.4101 C   0  0  1  0  0  0  0  0  0  0  0  0
   12.4540    8.8990   11.2805 C   0  0  0  0  0  3  0  0  0  0  0  0
   11.7295   10.2169   11.3240 C   0  0  0  0  0  0  0  0  0  0  0  0
   10.3730   10.1795   10.7086 C   0  0  0  0  0  0  0  0  0  0  0  0
    9.2442   10.1326   11.6803 C   0  0  1  0  0  0  0  0  0  0  0  0
    8.6909   11.4938   12.0251 C   0  0  2  0  0  0  0  0  0  0  0  0
    7.2012   11.4088   12.0407 C   0  0  0  0  0  3  0  0  0  0  0  0
    6.5700   11.9741   13.2662 C   0  0  2  0  0  0  0  0  0  0  0  0
    5.1246   12.2920   13.1055 C   0  0  2  0  0  0  0  0  0  0  0  0
    4.5323   12.5565   14.4600 C   0  0  1  0  0  0  0  0  0  0  0  0
    4.0414   11.3248   15.1406 C   0  0  1  0  0  0  0  0  0  0  0  0
    3.8575   11.5123   16.6314 C   0  0  0  0  0  3  0  0  0  0  0  0
    2.4751   11.1757   17.0803 C   0  0  0  0  0  3  0  0  0  0  0  0
    2.3395    9.8069   17.6792 C   0  0  0  0  0  0  0  0  0  0  0  0
    2.8809   10.6759   14.4680 C   0  0  0  0  0  2  0  0  0  0  0  0
    8.1585    9.2364   11.0937 C   0  0  0  0  0  0  0  0  0  0  0  0
    8.2286    9.3652    9.5861 C   0  0  0  0  0  3  0  0  0  0  0  0
    9.2239    8.4116    8.9801 C   0  0  0  0  0  3  0  0  0  0  0  0
    9.9368    8.9929    7.7877 C   0  0  0  0  0  0  0  0  0  0  0  0
    9.4569   10.3809    7.4405 C   0  0  0  0  0  0  0  0  0  0  0  0
    8.9114   10.4628    6.0354 C   0  0  0  0  0  3  0  0  0  0  0  0
   10.0322   10.7642    5.0419 C   0  0  0  0  0  3  0  0  0  0  0  0
    9.4000   11.0767    3.7055 C   0  0  0  0  0  3  0  0  0  0  0  0
    8.8468    9.7932    3.1090 C   0  0  1  0  0  0  0  0  0  0  0  0
    7.7678    9.2954    4.0723 C   0  0  0  0  0  2  0  0  0  0  0  0
    8.1705   10.0756    1.8031 C   0  0  0  0  0  3  0  0  0  0  0  0
    7.0409   11.0760    1.9291 C   0  0  0  0  0  3  0  0  0  0  0  0
    5.7227   10.3990    1.6574 C   0  0  0  0  0  3  0  0  0  0  0  0
    4.5643   11.1940    2.2228 C   0  0  2  0  0  0  0  0  0  0  0  0
    4.7307   12.6200    1.7175 C   0  0  0  0  0  2  0  0  0  0  0  0
    4.6907   11.1606    3.7386 C   0  0  0  0  0  0  0  0  0  0  0  0
    5.8165   12.1147    4.1197 C   0  0  0  0  0  0  0  0  0  0  0  0
    5.6651   12.4007    5.5979 C   0  0  0  0  0  0  0  0  0  0  0  0
    4.9354   13.7432    5.7146 C   0  0  0  0  0  0  0  0  0  0  0  0
    3.6385   13.5179    6.4882 C   0  0  1  0  0  0  0  0  0  0  0  0
    3.9831   12.5332    7.5992 C   0  0  0  0  0  3  0  0  0  0  0  0
    3.1779   11.2604    7.4210 C   0  0  0  0  0  0  0  0  0  0  0  0
    2.2577   11.1218    8.6192 C   0  0  0  0  0  3  0  0  0  0  0  0
    2.9965   10.7800    9.8534 C   0  0  0  0  0  0  0  0  0  0  0  0
    4.2885   11.1229    9.9495 C   0  0  0  0  0  0  0  0  0  0  0  0
    5.0681   10.7932   11.1837 C   0  0  0  0  0  0  0  0  0  0  0  0
    4.3264   11.1988   12.4400 C   0  0  2  0  0  0  0  0  0  0  0  0
    3.0004   11.8137   11.9979 C   0  0  0  0  0  0  0  0  0  0  0  0
    2.5213   12.8713   12.9494 C   0  0  0  0  0  2  0  0  0  0  0  0
    3.1832   14.8281    7.0856 C   0  0  0  0  0  0  0  0  0  0  0  0
    4.1307   15.3810    8.1002 C   0  0  1  0  0  0  0  0  0  0  0  0
    3.4484   16.0745    9.2498 C   0  0  0  0  0  2  0  0  0  0  0  0
    5.1666   14.3833    8.5469 C   0  0  0  0  0  3  0  0  0  0  0  0
    6.5087   14.8687    8.0192 C   0  0  0  0  0  0  0  0  0  0  0  0
    7.5657   13.7870    8.1294 C   0  0  0  0  0  3  0  0  0  0  0  0
    8.4727   14.1290    9.3120 C   0  0  0  0  0  3  0  0  0  0  0  0
    8.0452   13.2420   10.4566 C   0  0  2  0  0  0  0  0  0  0  0  0
    7.1735   13.9725   11.4487 C   0  0  0  0  0  3  0  0  0  0  0  0
    7.8183   14.1036   12.8060 C   0  0  0  0  0  3  0  0  0  0  0  0
    7.2756   13.1753   13.8200 C   0  0  2  0  0  0  0  0  0  0  0  0
    8.1972   12.8145   14.9294 C   0  0  0  0  0  3  0  0  0  0  0  0
    7.4253   11.9761   15.9270 C   0  0  0  0  0  3  0  0  0  0  0  0
    6.1544   12.6102   16.3783 C   0  0  0  0  0  3  0  0  0  0  0  0
    5.4386   13.3952   15.3318 C   0  0  0  0  0  3  0  0  0  0  0  0
  1  2  1  1
  2  3  1  6
  2  4  1  0
  4  5  1  0
  5  6  1  0
  6  7  1  0
  7  8  1  6
  7  9  1  0
  9 10  1  0
 10 11  1  0
 11 12  1  0
 12 13  1  0
 13 14  1  0
 14 15  1  0
 15 16  1  0
 16 17  1  0
 17 18  1  0
 18 19  1  1
 18 20  1  0
 20 21  1  0
 21 22  1  0
 22 23  1  0
 23 24  1  0
 24 25  1  0
 25 26  1  0
 26 27  1  0
 27 28  1  0
 28 29  1  0
 29 30  1  0
 31 30  1  6
 31 32  1  0
 32 33  1  0
 33 34  1  0
 35 34  1  6
 35 36  1  0
 36 37  1  6
 38 37  1  6
 38 39  1  0
 39 40  1  0
 40 41  1  0
 41 42  1  0
 42 43  1  0
 43 44  1  0
 41 45  1  6
 35 46  1  0
 46 47  1  0
 47 48  1  0
 48 49  1  0
 49 50  1  0
 50 51  1  0
 51 52  1  0
 52 53  1  0
 53 54  1  0
 54 55  1  1
 54 56  1  0
 56 57  1  0
 57 58  1  0
 58 59  1  0
 59 60  1  6
 59 61  1  0
 61 62  1  0
 62 63  1  0
 63 64  1  0
 65 64  1  6
 65 66  1  0
 66 67  1  0
 67 68  1  0
 68 69  1  0
 69 70  2  3
 70 71  1  0
 71 72  1  0
 72 73  1  6
 73 74  1  0
 65 75  1  0
 75 76  1  0
 76 77  1  1
 76 78  1  0
 78 79  1  0
 79 80  1  0
 80 81  1  0
 81 82  1  0
 82 83  1  1
 83 84  1  0
 84 85  1  0
 85 86  1  6
 86 87  1  0
 87 88  1  0
 88 89  1  0
 36  1  1  0
 82  1  1  0
 31 18  1  0
 85 38  1  0
 39 72  1  1
 40 89  1  1
M  RAD  8   9   2  12   2  13   3  14   2  16   2  32   2  37   2  42   2
M  RAD  8  43   2  45   3  47   2  48   2  51   2  52   2  53   2  55   3
M  RAD  8  56   2  57   2  58   2  60   3  66   2  68   2  74   3  77   3
M  RAD  8  78   2  80   2  81   2  83   2  84   2  86   2  87   2  88   2
M  RAD  1  89   2
M  END
>  <docking_score>  (1) 
279.673

$$$$
