
     RDKit          3D

 31 34  0  0  0  0  0  0  0  0999 V2000
   19.0388   -2.2831   -7.0140 C   0  0  1  0  0  0  0  0  0  0  0  0
   19.8066   -3.4894   -6.6302 C   0  0  0  0  0  0  0  0  0  0  0  0
   19.3778   -4.1238   -5.3414 C   0  0  0  0  0  0  0  0  0  0  0  0
   18.5288   -5.3231   -5.6894 C   0  0  0  0  0  0  0  0  0  0  0  0
   17.7480   -4.9835   -6.9416 C   0  0  1  0  0  0  0  0  0  0  0  0
   18.6708   -4.9114   -7.9877 O   0  0  0  0  0  0  0  0  0  0  0  0
   16.7862   -6.1015   -7.3079 C   0  0  2  0  0  0  0  0  0  0  0  0
   16.3364   -5.8303   -8.7272 C   0  0  0  0  0  0  0  0  0  0  0  0
   15.5664   -6.1138   -6.4324 C   0  0  0  0  0  0  0  0  0  0  0  0
   14.9500   -4.7108   -6.4788 C   0  0  2  0  0  0  0  0  0  0  0  0
   13.6725   -4.8511   -7.0101 O   0  0  0  0  0  0  0  0  0  0  0  0
   15.6711   -3.8652   -7.3015 O   0  0  0  0  0  0  0  0  0  0  0  0
   16.9725   -3.7227   -6.7573 C   0  0  2  0  0  0  0  0  0  0  0  0
   17.5893   -2.4956   -7.2988 C   0  0  2  0  0  0  0  0  0  0  0  0
   17.0776   -1.9620   -8.4505 O   0  0  0  0  0  0  0  0  0  0  0  0
   16.9828   -3.1273   -5.3806 C   0  0  2  0  0  0  0  0  0  0  0  0
   15.8106   -3.2218   -4.6665 O   0  0  0  0  0  0  0  0  0  0  0  0
   17.2651   -1.7958   -5.9989 C   0  0  2  0  0  0  0  0  0  0  0  0
   16.1642   -0.7888   -6.0331 C   0  0  0  0  0  0  0  0  0  0  0  0
   18.6546   -1.2930   -5.9734 C   0  0  1  0  0  0  0  0  0  0  0  0
   19.3564   -1.2952   -4.7529 O   0  0  0  0  0  0  0  0  0  0  0  0
   20.2065   -0.2028   -4.5205 C   0  0  0  0  0  0  0  0  0  0  0  0
   20.0523    0.8675   -5.2232 O   0  0  0  0  0  0  0  0  0  0  0  0
   21.2688   -0.1859   -3.5310 C   0  0  0  0  0  0  0  0  0  0  0  0
   20.8917   -0.3600   -2.2366 C   0  0  0  0  0  0  0  0  0  0  0  0
   19.5333   -0.5472   -1.8955 C   0  0  0  0  0  0  0  0  0  0  0  0
   18.6271   -1.3231   -1.7434 C   0  0  0  0  0  0  0  0  0  0  0  0
   18.3016   -3.0352   -1.8528 S   0  0  0  0  0  0  0  0  0  0  0  0
   16.6820   -3.4523   -2.1612 O   0  0  0  0  0  0  0  0  0  0  0  0
   16.3185   -4.5588   -1.3569 C   0  0  0  0  0  0  0  0  0  0  0  0
   16.1648   -4.2187   -0.0345 O   0  0  0  0  0  0  0  0  0  0  0  0
  1  2  1  1
  2  3  1  0
  3  4  1  0
  4  5  1  0
  5  6  1  6
  5  7  1  0
  7  8  1  6
  7  9  1  0
  9 10  1  0
 10 11  1  6
 10 12  1  0
 13 12  1  6
 13 14  1  0
 14 15  1  6
 13 16  1  0
 16 17  1  6
 16 18  1  0
 18 19  1  6
 18 20  1  0
 20 21  1  1
 21 22  1  0
 22 23  2  0
 22 24  1  0
 24 25  2  3
 25 26  1  0
 26 27  2  3
 27 28  1  0
 28 29  1  0
 29 30  1  0
 30 31  1  0
 14  1  1  0
 20  1  1  0
 13  5  1  0
 18 14  1  0
M  END
>  <docking_score>  (1) 
-3.9089999999999998

$$$$

     RDKit          3D

 31 34  0  0  0  0  0  0  0  0999 V2000
   17.4052   -5.0464   -5.8461 C   0  0  1  0  0  0  0  0  0  0  0  0
   17.6276   -4.8417   -7.2953 C   0  0  0  0  0  0  0  0  0  0  0  0
   19.0416   -4.5190   -7.6750 C   0  0  0  0  0  0  0  0  0  0  0  0
   19.6638   -5.7847   -8.2146 C   0  0  0  0  0  0  0  0  0  0  0  0
   19.0800   -6.9480   -7.4406 C   0  0  1  0  0  0  0  0  0  0  0  0
   17.7375   -7.0496   -7.8128 O   0  0  0  0  0  0  0  0  0  0  0  0
   19.7286   -8.2597   -7.8503 C   0  0  2  0  0  0  0  0  0  0  0  0
   18.8484   -9.3615   -7.3013 C   0  0  0  0  0  0  0  0  0  0  0  0
   21.0988   -8.4271   -7.2597 C   0  0  0  0  0  0  0  0  0  0  0  0
   20.9760   -8.2304   -5.7442 C   0  0  2  0  0  0  0  0  0  0  0  0
   21.3735   -9.4238   -5.1510 O   0  0  0  0  0  0  0  0  0  0  0  0
   19.6703   -7.9736   -5.3686 O   0  0  0  0  0  0  0  0  0  0  0  0
   19.2676   -6.7562   -5.9733 C   0  0  2  0  0  0  0  0  0  0  0  0
   18.1102   -6.2119   -5.2361 C   0  0  2  0  0  0  0  0  0  0  0  0
   17.3814   -7.0606   -4.4476 O   0  0  0  0  0  0  0  0  0  0  0  0
   20.0959   -5.5780   -5.5542 C   0  0  2  0  0  0  0  0  0  0  0  0
   21.3445   -5.8590   -5.0491 O   0  0  0  0  0  0  0  0  0  0  0  0
   19.0438   -5.2440   -4.5461 C   0  0  2  0  0  0  0  0  0  0  0  0
   19.3406   -5.5053   -3.1070 C   0  0  0  0  0  0  0  0  0  0  0  0
   18.0879   -4.1627   -4.8644 C   0  0  1  0  0  0  0  0  0  0  0  0
   18.5864   -2.9236   -5.3096 O   0  0  0  0  0  0  0  0  0  0  0  0
   18.0800   -1.7815   -4.6698 C   0  0  0  0  0  0  0  0  0  0  0  0
   17.8570   -0.7220   -5.3703 O   0  0  0  0  0  0  0  0  0  0  0  0
   17.7843   -1.6994   -3.2508 C   0  0  0  0  0  0  0  0  0  0  0  0
   16.5612   -2.1472   -2.8616 C   0  0  0  0  0  0  0  0  0  0  0  0
   15.6434   -2.6625   -3.8043 C   0  0  0  0  0  0  0  0  0  0  0  0
   15.0755   -2.5045   -4.8526 C   0  0  0  0  0  0  0  0  0  0  0  0
   14.9699   -1.3443   -6.1534 S   0  0  0  0  0  0  0  0  0  0  0  0
   15.9108   -1.6977   -7.5251 O   0  0  0  0  0  0  0  0  0  0  0  0
   15.1325   -2.4263   -8.4561 C   0  0  0  0  0  0  0  0  0  0  0  0
   14.6118   -3.5783   -7.9177 O   0  0  0  0  0  0  0  0  0  0  0  0
  1  2  1  6
  2  3  1  0
  3  4  1  0
  4  5  1  0
  5  6  1  1
  5  7  1  0
  7  8  1  1
  7  9  1  0
  9 10  1  0
 10 11  1  1
 10 12  1  0
 13 12  1  1
 13 14  1  0
 14 15  1  1
 13 16  1  0
 16 17  1  1
 16 18  1  0
 18 19  1  1
 18 20  1  0
 20 21  1  6
 21 22  1  0
 22 23  2  0
 22 24  1  0
 24 25  2  3
 25 26  1  0
 26 27  2  3
 27 28  1  0
 28 29  1  0
 29 30  1  0
 30 31  1  0
 14  1  1  0
 20  1  1  0
 13  5  1  0
 18 14  1  0
M  END
>  <docking_score>  (2) 
-2.98

$$$$

     RDKit          3D

 31 34  0  0  0  0  0  0  0  0999 V2000
    6.2143   11.1253    5.8567 C   0  0  1  0  0  0  0  0  0  0  0  0
    6.4743    9.6915    5.5954 C   0  0  0  0  0  0  0  0  0  0  0  0
    5.2531    8.8219    5.5899 C   0  0  0  0  0  0  0  0  0  0  0  0
    4.8935    8.5585    4.1471 C   0  0  0  0  0  0  0  0  0  0  0  0
    5.2343    9.8036    3.3556 C   0  0  1  0  0  0  0  0  0  0  0  0
    6.6274    9.9055    3.3403 O   0  0  0  0  0  0  0  0  0  0  0  0
    4.8087    9.6636    1.9035 C   0  0  2  0  0  0  0  0  0  0  0  0
    5.5009   10.7761    1.1462 C   0  0  0  0  0  0  0  0  0  0  0  0
    3.3280    9.8361    1.7243 C   0  0  0  0  0  0  0  0  0  0  0  0
    2.9365   11.1702    2.3707 C   0  0  2  0  0  0  0  0  0  0  0  0
    2.4125   11.9678    1.3592 O   0  0  0  0  0  0  0  0  0  0  0  0
    4.0344   11.8168    2.9078 O   0  0  0  0  0  0  0  0  0  0  0  0
    4.5661   11.0026    3.9394 C   0  0  2  0  0  0  0  0  0  0  0  0
    5.3936   11.8367    4.8332 C   0  0  2  0  0  0  0  0  0  0  0  0
    5.8541   13.0370    4.3638 O   0  0  0  0  0  0  0  0  0  0  0  0
    3.6007   10.7502    5.0593 C   0  0  2  0  0  0  0  0  0  0  0  0
    2.2674   10.9191    4.7647 O   0  0  0  0  0  0  0  0  0  0  0  0
    4.2478   11.8637    5.8185 C   0  0  2  0  0  0  0  0  0  0  0  0
    3.5035   13.1506    5.9500 C   0  0  0  0  0  0  0  0  0  0  0  0
    5.2122   11.5166    6.8831 C   0  0  1  0  0  0  0  0  0  0  0  0
    4.8406   10.5678    7.8546 O   0  0  0  0  0  0  0  0  0  0  0  0
    3.6926   10.8622    8.6067 C   0  0  0  0  0  0  0  0  0  0  0  0
    3.6507   11.9647    9.2743 O   0  0  0  0  0  0  0  0  0  0  0  0
    2.5261   10.0023    8.6938 C   0  0  0  0  0  0  0  0  0  0  0  0
    2.2844    9.4326    9.9042 C   0  0  0  0  0  0  0  0  0  0  0  0
    3.1350    9.6796   11.0051 C   0  0  0  0  0  0  0  0  0  0  0  0
    3.5520    9.2965   12.0662 C   0  0  0  0  0  0  0  0  0  0  0  0
    3.3718    7.9520   13.1659 S   0  0  0  0  0  0  0  0  0  0  0  0
    2.2713    6.7512   12.6770 O   0  0  0  0  0  0  0  0  0  0  0  0
    2.4720    5.5839   13.4518 C   0  0  0  0  0  0  0  0  0  0  0  0
    3.1417    5.8402   14.6239 O   0  0  0  0  0  0  0  0  0  0  0  0
  1  2  1  6
  2  3  1  0
  3  4  1  0
  4  5  1  0
  5  6  1  6
  5  7  1  0
  7  8  1  6
  7  9  1  0
  9 10  1  0
 10 11  1  6
 10 12  1  0
 13 12  1  6
 13 14  1  0
 14 15  1  6
 13 16  1  0
 16 17  1  6
 16 18  1  0
 18 19  1  1
 18 20  1  0
 20 21  1  1
 21 22  1  0
 22 23  2  0
 22 24  1  0
 24 25  2  3
 25 26  1  0
 26 27  2  3
 27 28  1  0
 28 29  1  0
 29 30  1  0
 30 31  1  0
 14  1  1  0
 20  1  1  0
 13  5  1  0
 18 14  1  0
M  END
>  <docking_score>  (3) 
-2.8300000000000001

$$$$
