
     RDKit          3D

 12 11  0  0  0  0  0  0  0  0999 V2000
   18.7872   -5.0939   -2.3084 O   0  0  0  0  0  0  0  0  0  0  0  0
   17.8787   -5.7646   -3.1448 C   0  0  0  0  0  0  0  0  0  0  0  0
   16.5064   -5.1509   -3.0825 C   0  0  0  0  0  3  0  0  0  0  0  0
   16.5668   -3.8788   -2.3459 N   0  0  0  0  0  0  0  0  0  0  0  0
   16.6620   -2.8049   -3.3171 C   0  0  2  0  0  0  0  0  0  0  0  0
   17.6120   -1.7636   -2.7808 C   0  0  0  0  0  0  0  0  0  0  0  0
   15.3916   -2.2649   -3.4734 O   0  0  0  0  0  0  0  0  0  0  0  0
   15.0589   -2.1943   -4.8234 C   0  0  1  0  0  0  0  0  0  0  0  0
   14.2126   -3.2692   -5.0945 O   0  0  0  0  0  0  0  0  0  0  0  0
   14.2374   -0.9355   -5.0156 C   0  0  2  0  0  0  0  0  0  0  0  0
   14.9130   -0.1551   -5.9493 O   0  0  0  0  0  0  0  0  0  0  0  0
   14.0321   -0.2085   -3.6989 C   0  0  0  0  0  2  0  0  0  0  0  0
  1  2  1  0
  2  3  1  0
  3  4  1  0
  4  5  1  0
  5  6  1  1
  5  7  1  0
  7  8  1  0
  8  9  1  1
  8 10  1  0
 10 11  1  0
 10 12  1  1
M  RAD  2   3   2  12   3
M  END
>  <docking_score>  (1) 
-3.2629999999999999

$$$$

     RDKit          3D

 12 11  0  0  0  0  0  0  0  0999 V2000
   18.0920   -7.4083   -4.6300 O   0  0  0  0  0  0  0  0  0  0  0  0
   19.0332   -6.7472   -3.8226 C   0  0  0  0  0  0  0  0  0  0  0  0
   18.3698   -5.8451   -2.8178 C   0  0  0  0  0  3  0  0  0  0  0  0
   17.0349   -5.4617   -3.3033 N   0  0  0  0  0  0  0  0  0  0  0  0
   16.8651   -4.0402   -3.0661 C   0  0  2  0  0  0  0  0  0  0  0  0
   16.7940   -3.8133   -1.5769 C   0  0  0  0  0  0  0  0  0  0  0  0
   15.6765   -3.6516   -3.6712 O   0  0  0  0  0  0  0  0  0  0  0  0
   15.6989   -2.2877   -3.9497 C   0  0  1  0  0  0  0  0  0  0  0  0
   16.9082   -2.0193   -4.5904 O   0  0  0  0  0  0  0  0  0  0  0  0
   14.6028   -2.0204   -4.9612 C   0  0  2  0  0  0  0  0  0  0  0  0
   14.1388   -3.2617   -5.3866 O   0  0  0  0  0  0  0  0  0  0  0  0
   15.1136   -1.1720   -6.1118 C   0  0  0  0  0  2  0  0  0  0  0  0
  1  2  1  0
  2  3  1  0
  3  4  1  0
  4  5  1  0
  5  6  1  1
  5  7  1  0
  7  8  1  0
  8  9  1  6
  8 10  1  0
 10 11  1  0
 10 12  1  6
M  RAD  2   3   2  12   3
M  END
>  <docking_score>  (2) 
-3.117

$$$$

     RDKit          3D

 12 11  0  0  0  0  0  0  0  0999 V2000
   13.6130   -5.6605   -7.0475 O   0  0  0  0  0  0  0  0  0  0  0  0
   14.3179   -4.6699   -6.3427 C   0  0  0  0  0  0  0  0  0  0  0  0
   15.1123   -3.7873   -7.2665 C   0  0  0  0  0  3  0  0  0  0  0  0
   16.2630   -3.2237   -6.5435 N   0  0  0  0  0  0  0  0  0  0  0  0
   15.7529   -2.4484   -5.4279 C   0  0  2  0  0  0  0  0  0  0  0  0
   15.6158   -1.0135   -5.8711 C   0  0  0  0  0  0  0  0  0  0  0  0
   16.6720   -2.5480   -4.3910 O   0  0  0  0  0  0  0  0  0  0  0  0
   16.0426   -2.9800   -3.2267 C   0  0  1  0  0  0  0  0  0  0  0  0
   16.3748   -4.3235   -3.0546 O   0  0  0  0  0  0  0  0  0  0  0  0
   16.6717   -2.2257   -2.0728 C   0  0  2  0  0  0  0  0  0  0  0  0
   15.8266   -1.1583   -1.7837 O   0  0  0  0  0  0  0  0  0  0  0  0
   18.0778   -1.7692   -2.4179 C   0  0  0  0  0  2  0  0  0  0  0  0
  1  2  1  0
  2  3  1  0
  3  4  1  0
  4  5  1  0
  5  6  1  6
  5  7  1  0
  7  8  1  0
  8  9  1  1
  8 10  1  0
 10 11  1  0
 10 12  1  6
M  RAD  2   3   2  12   3
M  END
>  <docking_score>  (3) 
-3.0310000000000001

$$$$
