
     RDKit          3D

 16 17  0  0  0  0  0  0  0  0999 V2000
   16.3760   -1.7767   -1.9783 C   0  0  0  0  0  0  0  0  0  0  0  0
   17.8050   -2.0871   -2.3395 C   0  0  1  0  0  0  0  0  0  0  0  0
   18.0423   -3.5529   -1.9858 C   0  0  0  0  0  0  0  0  0  0  0  0
   19.5441   -3.7284   -1.9079 C   0  0  2  0  0  0  0  0  0  0  0  0
   19.9902   -3.1603   -0.7174 O   0  0  0  0  0  0  0  0  0  0  0  0
   20.1283   -3.0134   -3.1132 C   0  0  2  0  0  0  0  0  0  0  0  0
   20.4783   -1.7205   -2.7284 O   0  0  0  0  0  0  0  0  0  0  0  0
   19.0920   -2.9145   -4.2275 C   0  0  1  0  0  0  0  0  0  0  0  0
   18.4578   -4.1636   -4.4004 O   0  0  0  0  0  0  0  0  0  0  0  0
   18.0609   -1.8781   -3.8234 C   0  0  1  0  0  0  0  0  0  0  0  0
   16.8061   -2.0382   -4.4978 N   0  0  0  0  0  0  0  0  0  0  0  0
   16.6530   -1.2496   -5.6784 C   0  0  0  0  0  3  0  0  0  0  0  0
   15.1887   -1.0015   -6.0152 C   0  0  0  0  0  0  0  0  0  0  0  0
   14.3400   -0.9227   -4.7783 C   0  0  0  0  0  3  0  0  0  0  0  0
   13.9432    0.2757   -4.2840 O   0  0  0  0  0  0  0  0  0  0  0  0
   13.0424   -0.6498   -4.8483 O   0  0  0  0  0  0  0  0  0  0  0  0
  2  1  1  6
  2  3  1  0
  3  4  1  0
  4  5  1  1
  4  6  1  0
  6  7  1  1
  6  8  1  0
  8  9  1  1
  8 10  1  0
 10 11  1  6
 11 12  1  0
 12 13  1  0
 13 14  1  0
 14 15  1  0
 14 16  1  0
 10  2  1  0
 16 15  1  0
M  RAD  2  12   2  14   2
M  END
>  <docking_score>  (1) 
-4.1449999999999996

$$$$

     RDKit          3D

 16 17  0  0  0  0  0  0  0  0999 V2000
   17.2729   -5.2950   -2.7252 C   0  0  0  0  0  0  0  0  0  0  0  0
   17.0524   -5.3076   -4.2152 C   0  0  1  0  0  0  0  0  0  0  0  0
   15.9900   -6.3670   -4.4962 C   0  0  0  0  0  0  0  0  0  0  0  0
   16.1071   -6.6991   -5.9687 C   0  0  2  0  0  0  0  0  0  0  0  0
   17.2357   -7.4943   -6.1498 O   0  0  0  0  0  0  0  0  0  0  0  0
   16.2403   -5.3770   -6.7032 C   0  0  2  0  0  0  0  0  0  0  0  0
   17.5965   -5.1084   -6.8792 O   0  0  0  0  0  0  0  0  0  0  0  0
   15.6340   -4.2464   -5.8788 C   0  0  1  0  0  0  0  0  0  0  0  0
   14.3731   -4.6420   -5.3828 O   0  0  0  0  0  0  0  0  0  0  0  0
   16.5644   -3.9578   -4.7162 C   0  0  1  0  0  0  0  0  0  0  0  0
   15.9102   -3.3082   -3.6183 N   0  0  0  0  0  0  0  0  0  0  0  0
   16.0571   -1.8882   -3.5857 C   0  0  0  0  0  3  0  0  0  0  0  0
   14.7199   -1.1712   -3.7157 C   0  0  0  0  0  0  0  0  0  0  0  0
   14.4057   -0.8369   -5.1460 C   0  0  0  0  0  3  0  0  0  0  0  0
   14.6495    0.4023   -5.6388 O   0  0  0  0  0  0  0  0  0  0  0  0
   15.3656   -0.7370   -6.0579 O   0  0  0  0  0  0  0  0  0  0  0  0
  2  1  1  1
  2  3  1  0
  3  4  1  0
  4  5  1  1
  4  6  1  0
  6  7  1  1
  6  8  1  0
  8  9  1  1
  8 10  1  0
 10 11  1  1
 11 12  1  0
 12 13  1  0
 13 14  1  0
 14 15  1  0
 14 16  1  0
 10  2  1  0
 16 15  1  0
M  RAD  2  12   2  14   2
M  END
>  <docking_score>  (2) 
-4.0309999999999997

$$$$

     RDKit          3D

 16 17  0  0  0  0  0  0  0  0999 V2000
   15.9717   -2.8874   -3.9373 C   0  0  0  0  0  0  0  0  0  0  0  0
   15.7030   -4.3098   -4.3538 C   0  0  1  0  0  0  0  0  0  0  0  0
   15.6046   -4.3135   -5.8771 C   0  0  0  0  0  0  0  0  0  0  0  0
   14.8941   -5.5977   -6.2490 C   0  0  2  0  0  0  0  0  0  0  0  0
   13.5399   -5.4480   -5.9612 O   0  0  0  0  0  0  0  0  0  0  0  0
   15.5180   -6.6984   -5.4096 C   0  0  2  0  0  0  0  0  0  0  0  0
   14.7483   -6.8616   -4.2593 O   0  0  0  0  0  0  0  0  0  0  0  0
   16.9304   -6.3095   -4.9863 C   0  0  1  0  0  0  0  0  0  0  0  0
   17.6361   -5.7971   -6.0962 O   0  0  0  0  0  0  0  0  0  0  0  0
   16.8255   -5.2378   -3.9181 C   0  0  1  0  0  0  0  0  0  0  0  0
   18.0123   -4.4426   -3.7987 N   0  0  0  0  0  0  0  0  0  0  0  0
   18.8328   -4.7522   -2.6718 C   0  0  0  0  0  3  0  0  0  0  0  0
   18.7607   -3.6748   -1.5979 C   0  0  0  0  0  0  0  0  0  0  0  0
   19.2658   -2.3532   -2.1024 C   0  0  0  0  0  3  0  0  0  0  0  0
   18.5742   -1.2108   -1.8688 O   0  0  0  0  0  0  0  0  0  0  0  0
   19.8297   -1.4725   -1.2843 O   0  0  0  0  0  0  0  0  0  0  0  0
  2  1  1  6
  2  3  1  0
  3  4  1  0
  4  5  1  1
  4  6  1  0
  6  7  1  1
  6  8  1  0
  8  9  1  6
  8 10  1  0
 10 11  1  6
 11 12  1  0
 12 13  1  0
 13 14  1  0
 14 15  1  0
 14 16  1  0
 10  2  1  0
 16 15  1  0
M  RAD  2  12   2  14   2
M  END
>  <docking_score>  (3) 
-3.9100000000000001

$$$$
