
     RDKit          3D

  6  5  0  0  0  0  0  0  0  0999 V2000
    6.2721    1.1630   -7.4514 N   0  0  0  0  0  0  0  0  0  0  0  0
    6.5408    0.2010   -6.4680 C   0  0  0  0  0  0  0  0  0  0  0  0
    7.2263    0.4844   -5.4815 O   0  0  0  0  0  0  0  0  0  0  0  0
    6.0097   -1.0963   -6.6371 N   0  0  0  0  0  0  0  0  0  0  0  0
    6.2438   -2.0958   -5.6984 N   0  0  0  0  0  0  0  0  0  0  0  0
    5.5583   -3.2222   -5.9487 O   0  0  0  0  0  0  0  0  0  0  0  0
  1  2  1  0
  2  3  2  0
  2  4  1  0
  4  5  1  0
  5  6  1  0
M  END
>  <docking_score>  (1) 
-3.117

$$$$

     RDKit          3D

  6  5  0  0  0  0  0  0  0  0999 V2000
    5.2686   -2.6854   -6.3662 N   0  0  0  0  0  0  0  0  0  0  0  0
    6.0499   -1.6050   -5.9338 C   0  0  0  0  0  0  0  0  0  0  0  0
    6.6990   -1.6775   -4.8865 O   0  0  0  0  0  0  0  0  0  0  0  0
    6.0724   -0.4355   -6.7247 N   0  0  0  0  0  0  0  0  0  0  0  0
    6.8250    0.6717   -6.3476 N   0  0  0  0  0  0  0  0  0  0  0  0
    6.3434    1.8252   -6.8363 O   0  0  0  0  0  0  0  0  0  0  0  0
  1  2  1  0
  2  3  2  0
  2  4  1  0
  4  5  1  0
  5  6  1  0
M  END
>  <docking_score>  (2) 
-3.0430000000000001

$$$$

     RDKit          3D

  6  5  0  0  0  0  0  0  0  0999 V2000
    5.7805   -2.3769   -6.9624 N   0  0  0  0  0  0  0  0  0  0  0  0
    5.9630   -1.0550   -7.3913 C   0  0  0  0  0  0  0  0  0  0  0  0
    5.8386   -0.7575   -8.5827 O   0  0  0  0  0  0  0  0  0  0  0  0
    6.2939   -0.0776   -6.4275 N   0  0  0  0  0  0  0  0  0  0  0  0
    6.4916    1.2505   -6.7906 N   0  0  0  0  0  0  0  0  0  0  0  0
    5.7605    2.1085   -6.0623 O   0  0  0  0  0  0  0  0  0  0  0  0
  1  2  1  0
  2  3  2  0
  2  4  1  0
  4  5  1  0
  5  6  1  0
M  END
>  <docking_score>  (3) 
-3.0129999999999999

$$$$
