
     RDKit          3D

 25 25  0  0  0  0  0  0  0  0999 V2000
    3.5279    8.0007    8.8953 C   0  0  0  0  0  0  0  0  0  0  0  0
    3.7024    9.0721    9.9269 C   0  0  0  0  0  0  0  0  0  0  0  0
    4.3259    8.5272   11.1910 C   0  0  0  0  0  0  0  0  0  0  0  0
    4.5310   10.1737    9.3461 C   0  0  0  0  0  0  0  0  0  0  0  0
    4.0636   11.3860    9.4296 C   0  0  0  0  0  0  0  0  0  0  0  0
    4.7054   12.5830    8.9341 C   0  0  0  0  0  0  0  0  0  0  0  0
    4.4795   13.0302    7.6517 O   0  0  0  0  0  0  0  0  0  0  0  0
    5.0751   12.5035    6.5176 C   0  0  0  0  0  0  0  0  0  0  0  0
    6.0553   13.1605    5.9115 C   0  0  0  0  0  0  0  0  0  0  0  0
    6.5818   14.8361    6.6802 Br  0  0  0  0  0  0  0  0  0  0  0  0
    6.7386   12.6980    4.7273 C   0  0  0  0  0  0  0  0  0  0  0  0
    6.3831   11.5457    4.1905 C   0  0  0  0  0  0  0  0  0  0  0  0
    7.0743   11.0550    2.9736 C   0  0  0  0  0  0  0  0  0  0  0  0
    6.0035   10.8322    1.9033 C   0  0  0  0  0  0  0  0  0  0  0  0
    5.7185    9.4630    1.8068 O   0  0  0  0  0  0  0  0  0  0  0  0
    5.3659   10.8420    4.8013 O   0  0  0  0  0  0  0  0  0  0  0  0
    4.6543   11.2036    5.9361 C   0  0  2  0  0  0  0  0  0  0  0  0
    2.7484   11.1213    5.6389 Br  0  0  0  0  0  0  0  0  0  0  0  0
    5.5129   13.2470    9.7232 C   0  0  0  0  0  0  0  0  0  0  0  0
    5.7768   12.8096   11.0789 C   0  0  0  0  0  0  0  0  0  0  0  0
    6.7908   13.1465   11.8249 C   0  0  0  0  0  0  0  0  0  0  0  0
    6.8752   12.5839   13.1935 C   0  0  0  0  0  0  0  0  0  0  0  0
    5.9414   11.5792   13.3814 O   0  0  0  0  0  0  0  0  0  0  0  0
    7.8305   14.0600   11.3335 C   0  0  0  0  0  0  0  0  0  0  0  0
    9.1547   13.6576   11.9277 C   0  0  0  0  0  0  0  0  0  0  0  0
  1  2  1  0
  2  3  1  0
  2  4  1  0
  4  5  2  3
  5  6  1  0
  6  7  1  0
  7  8  1  0
  8  9  2  0
  9 10  1  0
  9 11  1  0
 11 12  2  0
 12 13  1  0
 13 14  1  0
 14 15  1  0
 12 16  1  0
 16 17  1  0
 17 18  1  6
  6 19  2  3
 19 20  1  0
 20 21  2  3
 21 22  1  0
 22 23  1  0
 21 24  1  0
 24 25  1  0
 17  8  1  0
M  END
>  <docking_score>  (1) 
-3.5139999999999998

$$$$

     RDKit          3D

 25 25  0  0  0  0  0  0  0  0999 V2000
   18.1437   -2.9558   -8.3399 C   0  0  0  0  0  0  0  0  0  0  0  0
   17.6772   -2.1574   -7.1618 C   0  0  0  0  0  0  0  0  0  0  0  0
   16.1687   -2.1140   -7.0849 C   0  0  0  0  0  0  0  0  0  0  0  0
   18.2660   -2.7414   -5.9169 C   0  0  0  0  0  0  0  0  0  0  0  0
   17.4763   -2.8960   -4.8934 C   0  0  0  0  0  0  0  0  0  0  0  0
   17.8464   -3.4390   -3.6056 C   0  0  0  0  0  0  0  0  0  0  0  0
   17.4750   -4.7131   -3.2396 O   0  0  0  0  0  0  0  0  0  0  0  0
   17.4979   -5.8127   -4.0815 C   0  0  0  0  0  0  0  0  0  0  0  0
   18.6536   -6.2945   -4.5197 C   0  0  0  0  0  0  0  0  0  0  0  0
   20.2449   -5.4007   -3.9326 Br  0  0  0  0  0  0  0  0  0  0  0  0
   18.7838   -7.4325   -5.3978 C   0  0  0  0  0  0  0  0  0  0  0  0
   17.6940   -8.0543   -5.8077 C   0  0  0  0  0  0  0  0  0  0  0  0
   17.8090   -9.2256   -6.7102 C   0  0  0  0  0  0  0  0  0  0  0  0
   18.4384   -8.7319   -8.0148 C   0  0  0  0  0  0  0  0  0  0  0  0
   19.3235   -9.7035   -8.5024 O   0  0  0  0  0  0  0  0  0  0  0  0
   16.4786   -7.5734   -5.3666 O   0  0  0  0  0  0  0  0  0  0  0  0
   16.2549   -6.4927   -4.5259 C   0  0  2  0  0  0  0  0  0  0  0  0
   14.9774   -5.2562   -5.2790 Br  0  0  0  0  0  0  0  0  0  0  0  0
   18.5461   -2.7014   -2.7798 C   0  0  0  0  0  0  0  0  0  0  0  0
   18.9566   -1.3561   -3.1272 C   0  0  0  0  0  0  0  0  0  0  0  0
   20.1559   -0.8557   -3.0296 C   0  0  0  0  0  0  0  0  0  0  0  0
   20.3663    0.5526   -3.4409 C   0  0  0  0  0  0  0  0  0  0  0  0
   21.3825    1.1426   -2.7086 O   0  0  0  0  0  0  0  0  0  0  0  0
   21.2793   -1.6568   -2.5264 C   0  0  0  0  0  0  0  0  0  0  0  0
   21.3574   -1.5026   -1.0302 C   0  0  0  0  0  0  0  0  0  0  0  0
  1  2  1  0
  2  3  1  0
  2  4  1  0
  4  5  2  3
  5  6  1  0
  6  7  1  0
  7  8  1  0
  8  9  2  0
  9 10  1  0
  9 11  1  0
 11 12  2  0
 12 13  1  0
 13 14  1  0
 14 15  1  0
 12 16  1  0
 16 17  1  0
 17 18  1  6
  6 19  2  3
 19 20  1  0
 20 21  2  3
 21 22  1  0
 22 23  1  0
 21 24  1  0
 24 25  1  0
 17  8  1  0
M  END
>  <docking_score>  (2) 
-3.3250000000000002

$$$$

     RDKit          3D

 25 25  0  0  0  0  0  0  0  0999 V2000
    6.5259   13.7050   13.4495 C   0  0  0  0  0  0  0  0  0  0  0  0
    7.0601   13.8990   12.0639 C   0  0  0  0  0  0  0  0  0  0  0  0
    8.4942   13.4357   11.9538 C   0  0  0  0  0  0  0  0  0  0  0  0
    6.1801   13.1699   11.0988 C   0  0  0  0  0  0  0  0  0  0  0  0
    4.9083   13.4482   11.1161 C   0  0  0  0  0  0  0  0  0  0  0  0
    3.8953   12.8586   10.2697 C   0  0  0  0  0  0  0  0  0  0  0  0
    3.7269   13.2759    8.9686 O   0  0  0  0  0  0  0  0  0  0  0  0
    4.4870   12.8384    7.8966 C   0  0  0  0  0  0  0  0  0  0  0  0
    5.3021   13.6763    7.2695 C   0  0  0  0  0  0  0  0  0  0  0  0
    5.3614   15.4790    7.9197 Br  0  0  0  0  0  0  0  0  0  0  0  0
    6.1335   13.3193    6.1450 C   0  0  0  0  0  0  0  0  0  0  0  0
    6.0994   12.0808    5.6899 C   0  0  0  0  0  0  0  0  0  0  0  0
    6.9471   11.6962    4.5353 C   0  0  0  0  0  0  0  0  0  0  0  0
    6.8255   12.8103    3.4933 C   0  0  0  0  0  0  0  0  0  0  0  0
    5.7163   12.5621    2.6726 O   0  0  0  0  0  0  0  0  0  0  0  0
    5.2598   11.1887    6.3243 O   0  0  0  0  0  0  0  0  0  0  0  0
    4.4283   11.4379    7.4066 C   0  0  2  0  0  0  0  0  0  0  0  0
    2.6180   10.8619    7.0621 Br  0  0  0  0  0  0  0  0  0  0  0  0
    3.1296   11.9134   10.7554 C   0  0  0  0  0  0  0  0  0  0  0  0
    3.2750   11.4463   12.1191 C   0  0  0  0  0  0  0  0  0  0  0  0
    3.8993   10.3730   12.5147 C   0  0  0  0  0  0  0  0  0  0  0  0
    3.9320   10.0725   13.9657 C   0  0  0  0  0  0  0  0  0  0  0  0
    4.7406   10.9674   14.6453 O   0  0  0  0  0  0  0  0  0  0  0  0
    4.5583    9.4757   11.5568 C   0  0  0  0  0  0  0  0  0  0  0  0
    6.0497    9.5734   11.7425 C   0  0  0  0  0  0  0  0  0  0  0  0
  1  2  1  0
  2  3  1  0
  2  4  1  0
  4  5  2  3
  5  6  1  0
  6  7  1  0
  7  8  1  0
  8  9  2  0
  9 10  1  0
  9 11  1  0
 11 12  2  0
 12 13  1  0
 13 14  1  0
 14 15  1  0
 12 16  1  0
 16 17  1  0
 17 18  1  6
  6 19  2  3
 19 20  1  0
 20 21  2  3
 21 22  1  0
 22 23  1  0
 21 24  1  0
 24 25  1  0
 17  8  1  0
M  END
>  <docking_score>  (3) 
-3.3050000000000002

$$$$
