
     RDKit          3D

 20 20  0  0  0  0  0  0  0  0999 V2000
   17.1701   -3.0509   -5.8176 C   0  0  0  0  0  0  0  0  0  0  0  0
   16.3332   -3.3821   -4.7069 N   0  0  0  0  0  0  0  0  0  0  0  0
   15.6849   -4.6673   -4.8411 C   0  0  0  0  0  0  0  0  0  0  0  0
   16.9682   -3.2179   -3.4106 C   0  0  0  0  0  0  0  0  0  0  0  0
   16.0629   -2.2657   -2.6114 C   0  0  0  0  0  0  0  0  0  0  0  0
   15.1271   -1.5795   -3.4937 C   0  0  0  0  0  0  0  0  0  0  0  0
   14.7140   -0.3352   -3.4130 C   0  0  0  0  0  0  0  0  0  0  0  0
   13.7739    0.0423   -4.4588 N   0  0  0  0  0  0  0  0  0  0  0  0
   14.1886   -0.4295   -5.7681 C   0  0  0  0  0  0  0  0  0  0  0  0
   14.7013   -1.6434   -5.8180 C   0  0  0  0  0  0  0  0  0  0  0  0
   15.1625   -2.2598   -7.0360 C   0  0  0  0  0  0  0  0  0  0  0  0
   16.3354   -2.9301   -7.0412 C   0  0  0  0  0  0  0  0  0  0  0  0
   16.8102   -3.5674   -8.3029 C   0  0  0  0  0  0  0  0  0  0  0  0
   15.7856   -4.5024   -8.7108 N   0  0  0  0  0  0  0  0  0  0  0  0
   15.9570   -5.7287   -8.4737 N   0  0  0  0  0  0  0  0  0  0  0  0
   17.0737   -6.1558   -7.8525 O   0  0  0  0  0  0  0  0  0  0  0  0
   17.4083   -7.4382   -7.5855 N   0  0  0  0  0  0  0  0  0  0  0  0
   17.9661   -7.8446   -6.5301 N   0  0  0  0  0  0  0  0  0  0  0  0
   18.2866   -6.9235   -5.5170 N   0  0  0  0  0  2  0  0  0  0  0  0
   18.8500   -7.6949   -4.4100 C   0  0  0  0  0  0  0  0  0  0  0  0
  1  2  1  0
  2  3  1  0
  2  4  1  0
  4  5  1  0
  5  6  1  0
  6  7  2  3
  7  8  1  0
  8  9  1  0
  9 10  2  3
 10 11  1  0
 11 12  2  3
 12 13  1  0
 13 14  1  0
 14 15  2  3
 15 16  1  0
 16 17  1  0
 17 18  2  3
 18 19  1  0
 19 20  1  0
 12  1  1  0
M  CHG  1  19   1
M  RAD  1  19   3
M  END
>  <docking_score>  (1) 
-3.8290000000000002

$$$$

     RDKit          3D

 20 20  0  0  0  0  0  0  0  0999 V2000
   17.2057   -4.1403   -6.3064 C   0  0  0  0  0  0  0  0  0  0  0  0
   17.9704   -4.8403   -7.2908 N   0  0  0  0  0  0  0  0  0  0  0  0
   17.4123   -4.7496   -8.6213 C   0  0  0  0  0  0  0  0  0  0  0  0
   19.3917   -4.5398   -7.2677 C   0  0  0  0  0  0  0  0  0  0  0  0
   20.1089   -5.8900   -7.1014 C   0  0  0  0  0  0  0  0  0  0  0  0
   19.1761   -6.9206   -6.6625 C   0  0  0  0  0  0  0  0  0  0  0  0
   19.4019   -7.8986   -5.8151 C   0  0  0  0  0  0  0  0  0  0  0  0
   18.2500   -8.7603   -5.5896 N   0  0  0  0  0  0  0  0  0  0  0  0
   17.0238   -8.0037   -5.4092 C   0  0  0  0  0  0  0  0  0  0  0  0
   16.8589   -6.9587   -6.1966 C   0  0  0  0  0  0  0  0  0  0  0  0
   15.7010   -6.1027   -6.1460 C   0  0  0  0  0  0  0  0  0  0  0  0
   15.8603   -4.7622   -6.1979 C   0  0  0  0  0  0  0  0  0  0  0  0
   14.6603   -3.8785   -6.1457 C   0  0  0  0  0  0  0  0  0  0  0  0
   15.0841   -2.5706   -6.5930 N   0  0  0  0  0  0  0  0  0  0  0  0
   15.0656   -1.6149   -5.7709 N   0  0  0  0  0  0  0  0  0  0  0  0
   14.6583   -1.8122   -4.5018 O   0  0  0  0  0  0  0  0  0  0  0  0
   15.2535   -1.3445   -3.3816 N   0  0  0  0  0  0  0  0  0  0  0  0
   15.9540   -2.0270   -2.5854 N   0  0  0  0  0  0  0  0  0  0  0  0
   16.1618   -3.3938   -2.8425 N   0  0  0  0  0  2  0  0  0  0  0  0
   16.9110   -3.9265   -1.7054 C   0  0  0  0  0  0  0  0  0  0  0  0
  1  2  1  0
  2  3  1  0
  2  4  1  0
  4  5  1  0
  5  6  1  0
  6  7  2  3
  7  8  1  0
  8  9  1  0
  9 10  2  3
 10 11  1  0
 11 12  2  3
 12 13  1  0
 13 14  1  0
 14 15  2  3
 15 16  1  0
 16 17  1  0
 17 18  2  3
 18 19  1  0
 19 20  1  0
 12  1  1  0
M  CHG  1  19   1
M  RAD  1  19   3
M  END
>  <docking_score>  (2) 
-3.6259999999999999

$$$$

     RDKit          3D

 20 20  0  0  0  0  0  0  0  0999 V2000
   18.1796   -4.1896   -5.2996 C   0  0  0  0  0  0  0  0  0  0  0  0
   18.2227   -2.8976   -4.6891 N   0  0  0  0  0  0  0  0  0  0  0  0
   18.6930   -2.9248   -3.3224 C   0  0  0  0  0  0  0  0  0  0  0  0
   18.8953   -1.8839   -5.4833 C   0  0  0  0  0  0  0  0  0  0  0  0
   17.8832   -0.7390   -5.6566 C   0  0  0  0  0  0  0  0  0  0  0  0
   16.5370   -1.1828   -5.3169 C   0  0  0  0  0  0  0  0  0  0  0  0
   15.4103   -0.8497   -5.9045 C   0  0  0  0  0  0  0  0  0  0  0  0
   14.2330   -1.4743   -5.3181 N   0  0  0  0  0  0  0  0  0  0  0  0
   14.4386   -2.8850   -5.0416 C   0  0  0  0  0  0  0  0  0  0  0  0
   15.6155   -3.2202   -4.5501 C   0  0  0  0  0  0  0  0  0  0  0  0
   15.9813   -4.5749   -4.2226 C   0  0  0  0  0  0  0  0  0  0  0  0
   17.1990   -5.0406   -4.5765 C   0  0  0  0  0  0  0  0  0  0  0  0
   17.5752   -6.4428   -4.2360 C   0  0  0  0  0  0  0  0  0  0  0  0
   18.8671   -6.6872   -4.8374 N   0  0  0  0  0  0  0  0  0  0  0  0
   18.9108   -7.1683   -6.0018 N   0  0  0  0  0  0  0  0  0  0  0  0
   17.7744   -7.4480   -6.6695 O   0  0  0  0  0  0  0  0  0  0  0  0
   17.5427   -7.2491   -7.9866 N   0  0  0  0  0  0  0  0  0  0  0  0
   16.6319   -6.5216   -8.4678 N   0  0  0  0  0  0  0  0  0  0  0  0
   15.7593   -5.8397   -7.6011 N   0  0  0  0  0  2  0  0  0  0  0  0
   15.4909   -4.5388   -8.2123 C   0  0  0  0  0  0  0  0  0  0  0  0
  1  2  1  0
  2  3  1  0
  2  4  1  0
  4  5  1  0
  5  6  1  0
  6  7  2  3
  7  8  1  0
  8  9  1  0
  9 10  2  3
 10 11  1  0
 11 12  2  3
 12 13  1  0
 13 14  1  0
 14 15  2  3
 15 16  1  0
 16 17  1  0
 17 18  2  3
 18 19  1  0
 19 20  1  0
 12  1  1  0
M  CHG  1  19   1
M  RAD  1  19   3
M  END
>  <docking_score>  (3) 
-3.4689999999999999

$$$$
