
     RDKit          3D

 67 68  0  0  0  0  0  0  0  0999 V2000
   16.0380   -6.4588   -4.1941 C   0  0  0  0  0  0  0  0  0  0  0  0
   14.8945   -6.4065   -4.9946 O   0  0  0  0  0  0  0  0  0  0  0  0
   15.1747   -6.8200   -6.2888 C   0  0  0  0  0  3  0  0  0  0  0  0
   14.0066   -7.1745   -6.9480 O   0  0  0  0  0  0  0  0  0  0  0  0
   13.1470   -6.0894   -7.0089 C   0  0  2  0  0  0  0  0  0  0  0  0
   12.9387   -5.4432   -5.6481 C   0  0  0  0  0  0  0  0  0  0  0  0
   11.6411   -5.7074   -5.2355 O   0  0  0  0  0  0  0  0  0  0  0  0
   11.7960   -6.5495   -7.5127 C   0  0  0  0  0  3  0  0  0  0  0  0
   11.3472   -5.7709   -8.6539 N   0  0  0  0  0  0  0  0  0  0  0  0
   10.8872   -4.4777   -8.2137 C   0  0  0  0  0  3  0  0  0  0  0  0
    9.5060   -4.5504   -7.6129 C   0  0  2  0  0  0  0  0  0  0  0  0
    8.6355   -5.3626   -8.5447 C   0  0  0  0  0  0  0  0  0  0  0  0
    8.9957   -3.2664   -7.5413 O   0  0  0  0  0  0  0  0  0  0  0  0
    7.9801   -3.1799   -6.7120 O   0  0  0  0  0  0  0  0  0  0  0  0
    7.1520   -2.1562   -7.1506 C   0  0  0  0  0  0  0  0  0  0  0  0
    6.4182   -1.5140   -6.0050 C   0  0  0  0  0  0  0  0  0  0  0  0
    6.5036   -0.1224   -6.1083 O   0  0  0  0  0  0  0  0  0  0  0  0
    7.3060    0.3169   -5.0595 C   0  0  0  0  0  3  0  0  0  0  0  0
    7.7278    1.7674   -5.2618 C   0  0  0  0  0  3  0  0  0  0  0  0
    7.3864    2.5028   -3.9940 C   0  0  2  0  0  0  0  0  0  0  0  0
    6.0184    2.6334   -3.8145 O   0  0  0  0  0  0  0  0  0  0  0  0
    7.9899    3.8780   -3.9764 C   0  0  0  0  0  3  0  0  0  0  0  0
    9.3429    3.9219   -4.6286 C   0  0  0  0  0  3  0  0  0  0  0  0
   10.1715    4.9490   -3.8747 C   0  0  0  0  0  3  0  0  0  0  0  0
   11.1909    4.2454   -3.1055 N   0  0  0  0  0  0  0  0  0  0  0  0
   12.4551    4.5126   -3.7428 C   0  0  0  0  0  3  0  0  0  0  0  0
   13.5606    3.8591   -2.9711 C   0  0  1  0  0  0  0  0  0  0  0  0
   14.8842    3.9191   -3.6792 C   0  0  0  0  0  3  0  0  0  0  0  0
   15.3478    5.2288   -3.6466 O   0  0  0  0  0  0  0  0  0  0  0  0
   15.0413    5.8691   -4.8421 C   0  0  0  0  0  3  0  0  0  0  0  0
   16.3142    6.2417   -5.5512 C   0  0  1  0  0  0  0  0  0  0  0  0
   16.9984    7.2503   -4.8738 O   0  0  0  0  0  0  0  0  0  0  0  0
   18.1828    7.5272   -5.5504 C   0  0  0  0  0  3  0  0  0  0  0  0
   18.2568    6.8070   -6.7500 O   0  0  0  0  0  0  0  0  0  0  0  0
   19.5699    6.3754   -6.9324 C   0  0  0  0  0  3  0  0  0  0  0  0
   20.5591    7.4524   -6.5547 C   0  0  0  0  0  2  0  0  0  0  0  0
   17.1499    4.9884   -5.6809 C   0  0  0  0  0  3  0  0  0  0  0  0
   18.0530    4.8122   -4.4892 C   0  0  0  0  0  3  0  0  0  0  0  0
   19.3532    4.1869   -4.9721 C   0  0  0  0  0  3  0  0  0  0  0  0
   19.0193    3.0901   -5.9690 C   0  0  0  0  0  0  0  0  0  0  0  0
   20.2254    2.2036   -6.1347 C   0  0  0  0  0  3  0  0  0  0  0  0
   20.0936    1.0597   -5.3502 O   0  0  0  0  0  0  0  0  0  0  0  0
   19.7868   -0.0039   -6.2011 C   0  0  0  0  0  3  0  0  0  0  0  0
   19.9109   -1.3023   -5.4221 C   0  0  2  0  0  0  0  0  0  0  0  0
   21.3513   -1.4759   -5.0048 C   0  0  0  0  0  2  0  0  0  0  0  0
   19.5644   -2.3412   -6.2930 O   0  0  0  0  0  0  0  0  0  0  0  0
   19.8805   -3.5569   -5.7124 C   0  0  0  0  0  3  0  0  0  0  0  0
   18.9798   -3.8520   -4.5382 C   0  0  1  0  0  0  0  0  0  0  0  0
   19.4931   -3.2720   -3.3762 O   0  0  0  0  0  0  0  0  0  0  0  0
   17.5896   -3.2947   -4.7774 C   0  0  0  0  0  3  0  0  0  0  0  0
   16.6743   -4.3283   -5.0039 O   0  0  0  0  0  0  0  0  0  0  0  0
   16.5071   -5.0603   -3.8358 C   0  0  1  0  0  0  0  0  0  0  0  0
   15.3954   -4.3930   -3.0501 C   0  0  0  0  0  0  0  0  0  0  0  0
   15.7254   -3.0379   -2.9637 O   0  0  0  0  0  0  0  0  0  0  0  0
   15.9951   -2.7437   -1.6183 C   0  0  0  0  0  3  0  0  0  0  0  0
   16.0943   -1.2306   -1.5231 C   0  0  0  0  0  0  0  0  0  0  0  0
   15.0158   -0.7080   -2.2210 O   0  0  0  0  0  0  0  0  0  0  0  0
   14.9010    0.6665   -2.0978 C   0  0  0  0  0  3  0  0  0  0  0  0
   14.1399    0.9817   -0.9760 O   0  0  0  0  0  0  0  0  0  0  0  0
   14.7424    2.0085   -0.3398 N   0  0  0  0  0  0  0  0  0  0  0  0
   13.8094    2.8055    0.3541 N   0  0  0  0  0  0  0  0  0  0  0  0
   12.8530    3.3153   -0.6210 C   0  0  0  0  0  0  0  0  0  0  0  0
   13.6243    4.2540   -1.5300 C   0  0  2  0  0  0  0  0  0  0  0  0
   13.2072    5.6672   -1.2576 C   0  0  0  0  0  3  0  0  0  0  0  0
   12.3095    5.8051   -0.1397 N   0  0  0  0  0  0  0  0  0  0  0  0
   12.7864    6.9443    0.6412 C   0  0  0  0  0  3  0  0  0  0  0  0
   14.0582    7.3318    0.2288 O   0  0  0  0  0  0  0  0  0  0  0  0
  1  2  1  0
  2  3  1  0
  3  4  1  0
  4  5  1  0
  5  6  1  1
  6  7  1  0
  5  8  1  0
  8  9  1  0
  9 10  1  0
 10 11  1  0
 11 12  1  6
 11 13  1  0
 13 14  1  0
 14 15  1  0
 15 16  1  0
 16 17  1  0
 17 18  1  0
 18 19  1  0
 19 20  1  0
 20 21  1  6
 20 22  1  0
 22 23  1  0
 23 24  1  0
 24 25  1  0
 25 26  1  0
 27 26  1  6
 27 28  1  0
 28 29  1  0
 29 30  1  0
 30 31  1  0
 31 32  1  1
 32 33  1  0
 33 34  1  0
 34 35  1  0
 35 36  1  0
 31 37  1  0
 37 38  1  0
 38 39  1  0
 39 40  1  0
 40 41  1  0
 41 42  1  0
 42 43  1  0
 43 44  1  0
 44 45  1  6
 44 46  1  0
 46 47  1  0
 47 48  1  0
 48 49  1  1
 48 50  1  0
 50 51  1  0
 51 52  1  0
 52 53  1  0
 53 54  1  0
 54 55  1  0
 55 56  1  0
 56 57  1  0
 57 58  1  0
 58 59  1  0
 59 60  1  0
 60 61  1  0
 61 62  1  0
 62 63  1  0
 63 64  1  6
 64 65  1  0
 65 66  1  0
 66 67  1  0
 52  1  1  6
 63 27  1  0
M  RAD  8   3   2   8   2  10   2  18   2  19   2  22   2  23   2  24   2
M  RAD  8  26   2  28   2  30   2  33   2  35   2  36   3  37   2  38   2
M  RAD  8  39   2  41   2  43   2  45   3  47   2  50   2  55   2  58   2
M  RAD  2  64   2  66   2
M  END
>  <docking_score>  (1) 
163.846

$$$$
