
     RDKit          3D

 17 19  0  0  0  0  0  0  0  0999 V2000
   18.9220   -3.8389   -2.0051 C   0  0  0  0  0  0  0  0  0  0  0  0
   18.7786   -4.8248   -3.0984 C   0  0  1  0  0  0  0  0  0  0  0  0
   19.8692   -5.8329   -3.2423 C   0  0  0  0  0  0  0  0  0  0  0  0
   19.2154   -7.1205   -3.7613 C   0  0  2  0  0  0  0  0  0  0  0  0
   20.2273   -8.1636   -4.1101 C   0  0  0  0  0  0  0  0  0  0  0  0
   18.3848   -6.8759   -4.8530 O   0  0  0  0  0  0  0  0  0  0  0  0
   17.3570   -6.0140   -4.6013 C   0  0  2  0  0  0  0  0  0  0  0  0
   17.4779   -5.5524   -3.1663 C   0  0  2  0  0  0  0  0  0  0  0  0
   16.2867   -4.8714   -2.6343 C   0  0  0  0  0  0  0  0  0  0  0  0
   16.5438   -3.8692   -1.5644 C   0  0  0  0  0  0  0  0  0  0  0  0
   17.6661   -2.9505   -2.0691 C   0  0  2  0  0  0  0  0  0  0  0  0
   17.3752   -2.7802   -3.5691 C   0  0  0  0  0  0  0  0  0  0  0  0
   15.9808   -2.3738   -3.7857 C   0  0  0  0  0  0  0  0  0  0  0  0
   15.1064   -3.0397   -4.5226 C   0  0  0  0  0  3  0  0  0  0  0  0
   15.4462   -4.2349   -5.1853 O   0  0  0  0  0  0  0  0  0  0  0  0
   15.1002   -5.4259   -4.6858 O   0  0  0  0  0  0  0  0  0  0  0  0
   16.0052   -6.4358   -5.0109 C   0  0  0  0  0  3  0  0  0  0  0  0
  1  2  1  0
  2  3  1  1
  3  4  1  0
  4  5  1  6
  4  6  1  0
  7  6  1  1
  7  8  1  0
  8  9  1  6
  9 10  1  0
 11 10  1  1
 11 12  1  0
 12 13  1  0
 13 14  2  3
 14 15  1  0
 15 16  1  0
 16 17  1  0
 11  1  1  0
  8  2  1  0
 17  7  1  0
M  RAD  2  14   2  17   2
M  END
>  <docking_score>  (1) 
-5.6470000000000002

$$$$

     RDKit          3D

 17 19  0  0  0  0  0  0  0  0999 V2000
   17.7944   -6.0631   -3.7337 C   0  0  0  0  0  0  0  0  0  0  0  0
   17.2777   -4.7089   -3.4389 C   0  0  1  0  0  0  0  0  0  0  0  0
   18.0772   -3.8749   -2.4946 C   0  0  0  0  0  0  0  0  0  0  0  0
   17.9083   -2.4165   -2.9410 C   0  0  2  0  0  0  0  0  0  0  0  0
   18.5251   -1.4577   -1.9747 C   0  0  0  0  0  0  0  0  0  0  0  0
   16.5698   -2.0905   -3.1498 O   0  0  0  0  0  0  0  0  0  0  0  0
   15.9446   -2.8438   -4.1008 C   0  0  2  0  0  0  0  0  0  0  0  0
   16.9389   -3.8593   -4.6175 C   0  0  2  0  0  0  0  0  0  0  0  0
   16.5363   -4.5421   -5.8575 C   0  0  0  0  0  0  0  0  0  0  0  0
   17.0792   -5.9159   -6.0397 C   0  0  0  0  0  0  0  0  0  0  0  0
   16.8061   -6.6836   -4.7381 C   0  0  2  0  0  0  0  0  0  0  0  0
   15.4204   -6.1924   -4.2880 C   0  0  0  0  0  0  0  0  0  0  0  0
   14.4499   -6.2972   -5.3850 C   0  0  0  0  0  0  0  0  0  0  0  0
   13.7505   -5.2855   -5.8733 C   0  0  0  0  0  3  0  0  0  0  0  0
   13.8791   -3.9773   -5.3682 O   0  0  0  0  0  0  0  0  0  0  0  0
   14.6125   -3.0584   -6.0049 O   0  0  0  0  0  0  0  0  0  0  0  0
   15.1858   -2.1259   -5.1410 C   0  0  0  0  0  3  0  0  0  0  0  0
  1  2  1  0
  2  3  1  6
  3  4  1  0
  4  5  1  1
  4  6  1  0
  7  6  1  6
  7  8  1  0
  8  9  1  6
  9 10  1  0
 11 10  1  6
 11 12  1  0
 12 13  1  0
 13 14  2  3
 14 15  1  0
 15 16  1  0
 16 17  1  0
 11  1  1  0
  8  2  1  0
 17  7  1  0
M  RAD  2  14   2  17   2
M  END
>  <docking_score>  (2) 
-5.4939999999999998

$$$$

     RDKit          3D

 17 19  0  0  0  0  0  0  0  0999 V2000
   17.5001   -6.8215   -4.6725 C   0  0  0  0  0  0  0  0  0  0  0  0
   17.2231   -5.6210   -3.8540 C   0  0  1  0  0  0  0  0  0  0  0  0
   18.1827   -5.3232   -2.7509 C   0  0  0  0  0  0  0  0  0  0  0  0
   18.2381   -3.7958   -2.6135 C   0  0  2  0  0  0  0  0  0  0  0  0
   19.0389   -3.3668   -1.4268 C   0  0  0  0  0  0  0  0  0  0  0  0
   16.9641   -3.2342   -2.5592 O   0  0  0  0  0  0  0  0  0  0  0  0
   16.1892   -3.4796   -3.6555 C   0  0  2  0  0  0  0  0  0  0  0  0
   16.9842   -4.3519   -4.6010 C   0  0  2  0  0  0  0  0  0  0  0  0
   16.4295   -4.4545   -5.9603 C   0  0  0  0  0  0  0  0  0  0  0  0
   16.7333   -5.7189   -6.6844 C   0  0  0  0  0  0  0  0  0  0  0  0
   16.3869   -6.8751   -5.7349 C   0  0  2  0  0  0  0  0  0  0  0  0
   15.1179   -6.4041   -5.0058 C   0  0  0  0  0  0  0  0  0  0  0  0
   14.1032   -5.9529   -5.9665 C   0  0  0  0  0  0  0  0  0  0  0  0
   13.5610   -4.7459   -5.9807 C   0  0  0  0  0  3  0  0  0  0  0  0
   13.9205   -3.7557   -5.0461 O   0  0  0  0  0  0  0  0  0  0  0  0
   14.7700   -2.7751   -5.3689 O   0  0  0  0  0  0  0  0  0  0  0  0
   15.5199   -2.3255   -4.2825 C   0  0  0  0  0  3  0  0  0  0  0  0
  1  2  1  0
  2  3  1  1
  3  4  1  0
  4  5  1  1
  4  6  1  0
  7  6  1  1
  7  8  1  0
  8  9  1  6
  9 10  1  0
 11 10  1  6
 11 12  1  0
 12 13  1  0
 13 14  2  3
 14 15  1  0
 15 16  1  0
 16 17  1  0
 11  1  1  0
  8  2  1  0
 17  7  1  0
M  RAD  2  14   2  17   2
M  END
>  <docking_score>  (3) 
-5.4450000000000003

$$$$
