
     RDKit          3D

  9  8  0  0  0  0  0  0  0  0999 V2000
    6.2954    2.3709   -6.2535 O   0  0  0  0  0  0  0  0  0  0  0  0
    6.6233    1.0953   -6.2239 O   0  0  0  0  0  0  0  0  0  0  0  0
    5.9641    0.4839   -7.2916 C   0  0  0  0  0  3  0  0  0  0  0  0
    6.4424   -0.8198   -7.3649 O   0  0  0  0  0  0  0  0  0  0  0  0
    5.6226   -1.7443   -6.7420 C   0  0  2  0  0  0  0  0  0  0  0  0
    6.1377   -2.2064   -5.4134 C   0  0  0  0  0  0  0  0  0  0  0  0
    5.2589   -2.8921   -7.6390 C   0  0  0  0  0  3  0  0  0  0  0  0
    4.6314   -3.9669   -6.7853 C   0  0  0  0  0  3  0  0  0  0  0  0
    5.1089   -5.1960   -7.2458 O   0  0  0  0  0  0  0  0  0  0  0  0
  1  2  1  0
  2  3  1  0
  3  4  1  0
  4  5  1  0
  5  6  1  1
  5  7  1  0
  7  8  1  0
  8  9  1  0
M  RAD  3   3   2   7   2   8   2
M  END
>  <docking_score>  (1) 
-3.7959999999999998

$$$$

     RDKit          3D

  9  8  0  0  0  0  0  0  0  0999 V2000
   18.2414    7.3347   -2.9264 O   0  0  0  0  0  0  0  0  0  0  0  0
   19.4345    6.8511   -2.6466 O   0  0  0  0  0  0  0  0  0  0  0  0
   20.2742    7.9455   -2.4336 C   0  0  0  0  0  3  0  0  0  0  0  0
   19.4552    9.0242   -2.1184 O   0  0  0  0  0  0  0  0  0  0  0  0
   19.9670    9.8320   -1.1182 C   0  0  2  0  0  0  0  0  0  0  0  0
   19.1860    9.7764    0.1589 C   0  0  0  0  0  0  0  0  0  0  0  0
   20.2026   11.2420   -1.5773 C   0  0  0  0  0  3  0  0  0  0  0  0
   19.0034   11.6728   -2.3860 C   0  0  0  0  0  3  0  0  0  0  0  0
   19.4430   12.6266   -3.3068 O   0  0  0  0  0  0  0  0  0  0  0  0
  1  2  1  0
  2  3  1  0
  3  4  1  0
  4  5  1  0
  5  6  1  1
  5  7  1  0
  7  8  1  0
  8  9  1  0
M  RAD  3   3   2   7   2   8   2
M  END
>  <docking_score>  (2) 
-3.391

$$$$

     RDKit          3D

  9  8  0  0  0  0  0  0  0  0999 V2000
    5.6877   -0.9592   -8.2638 O   0  0  0  0  0  0  0  0  0  0  0  0
    6.1897   -1.5245   -7.1848 O   0  0  0  0  0  0  0  0  0  0  0  0
    5.5214   -2.7384   -7.0167 C   0  0  0  0  0  3  0  0  0  0  0  0
    4.9918   -3.0799   -8.2563 O   0  0  0  0  0  0  0  0  0  0  0  0
    4.6155   -4.4082   -8.3488 C   0  0  2  0  0  0  0  0  0  0  0  0
    3.2393   -4.6816   -7.8241 C   0  0  0  0  0  0  0  0  0  0  0  0
    5.6388   -5.3412   -7.7685 C   0  0  0  0  0  3  0  0  0  0  0  0
    5.5830   -6.6329   -8.5470 C   0  0  0  0  0  3  0  0  0  0  0  0
    6.6799   -7.4033   -8.1547 O   0  0  0  0  0  0  0  0  0  0  0  0
  1  2  1  0
  2  3  1  0
  3  4  1  0
  4  5  1  0
  5  6  1  1
  5  7  1  0
  7  8  1  0
  8  9  1  0
M  RAD  3   3   2   7   2   8   2
M  END
>  <docking_score>  (3) 
-2.9500000000000002

$$$$
