
     RDKit          3D

 27 28  0  0  0  0  0  0  0  0999 V2000
    2.6593    9.0318   12.8298 C   0  0  0  0  0  0  0  0  0  0  0  0
    3.0377    9.7560   11.6664 C   0  0  0  0  0  0  0  0  0  0  0  0
    3.7993   10.8407   11.5495 C   0  0  0  0  0  0  0  0  0  0  0  0
    3.9939   11.4132   10.2425 C   0  0  0  0  0  0  0  0  0  0  0  0
    4.8827   12.3262    9.9194 C   0  0  0  0  0  0  0  0  0  0  0  0
    5.8287   12.8584   10.9771 C   0  0  0  0  0  0  0  0  0  0  0  0
    6.5466   13.8381   10.5256 C   0  0  0  0  0  0  0  0  0  0  0  0
    7.5738   14.6711   11.0664 C   0  0  0  0  0  0  0  0  0  0  0  0
    7.7942   15.1107   12.1320 C   0  0  0  0  0  0  0  0  0  0  0  0
    7.9339   15.5582   13.4234 C   0  0  0  0  0  3  0  0  0  0  0  0
    9.2915   16.0722   13.8601 C   0  0  0  0  0  0  0  0  0  0  0  0
    7.4735   14.5493   14.3215 O   0  0  0  0  0  0  0  0  0  0  0  0
    7.6492   13.3937   13.5122 C   0  0  0  0  0  0  0  0  0  0  0  0
    6.4671   12.5695   13.3500 C   0  0  0  0  0  0  0  0  0  0  0  0
    5.6902   12.3300   12.2947 C   0  0  0  0  0  0  0  0  0  0  0  0
    4.6484   11.3104   12.5585 N   0  0  0  0  0  0  0  0  0  0  0  0
    4.5172   10.8531   13.9444 C   0  0  0  0  0  0  0  0  0  0  0  0
    4.2661   11.9064   14.7845 C   0  0  0  0  0  0  0  0  0  0  0  0
    4.1206   11.6319   16.1460 C   0  0  0  0  0  0  0  0  0  0  0  0
    3.9754   11.3922   17.3608 N   0  0  0  0  0  0  0  0  0  0  0  0
    4.8859   12.9356    8.6072 C   0  0  0  0  0  0  0  0  0  0  0  0
    4.7075   12.3596    7.4639 C   0  0  0  0  0  0  0  0  0  0  0  0
    4.7191   12.8662    6.2055 C   0  0  0  0  0  0  0  0  0  0  0  0
    4.5655   13.3307    5.1149 C   0  0  0  0  0  0  0  0  0  0  0  0
    5.5242   13.5878    4.0850 C   0  0  0  0  0  0  0  0  0  0  0  0
    6.3462   13.8299    3.1886 C   0  0  0  0  0  0  0  0  0  0  0  0
    7.3007   14.1004    2.1583 C   0  0  0  0  0  0  0  0  0  0  0  0
  1  2  1  0
  2  3  2  3
  3  4  1  0
  4  5  2  0
  5  6  1  0
  6  7  2  3
  7  8  1  0
  8  9  2  3
  9 10  1  0
 10 11  1  0
 10 12  1  0
 12 13  1  0
 13 14  1  0
 14 15  2  3
 15 16  1  0
 16 17  1  0
 17 18  2  3
 18 19  1  0
 19 20  3  0
  5 21  1  0
 21 22  2  3
 22 23  1  0
 23 24  2  3
 24 25  1  0
 25 26  3  0
 26 27  1  0
 16  3  1  0
 15  6  1  0
M  RAD  1  10   2
M  END
>  <docking_score>  (1) 
-3.8439999999999999

$$$$

     RDKit          3D

 27 28  0  0  0  0  0  0  0  0999 V2000
    4.9431    6.8238    4.2850 C   0  0  0  0  0  0  0  0  0  0  0  0
    4.3937    7.2373    5.5294 C   0  0  0  0  0  0  0  0  0  0  0  0
    4.5765    8.3680    6.2064 C   0  0  0  0  0  0  0  0  0  0  0  0
    3.9300    8.5230    7.4838 C   0  0  0  0  0  0  0  0  0  0  0  0
    3.8162    9.6410    8.1658 C   0  0  0  0  0  0  0  0  0  0  0  0
    4.3898   10.9250    7.6007 C   0  0  0  0  0  0  0  0  0  0  0  0
    4.3074   11.8992    8.4512 C   0  0  0  0  0  0  0  0  0  0  0  0
    4.6657   13.2822    8.4413 C   0  0  0  0  0  0  0  0  0  0  0  0
    5.5320   13.8993    7.9452 C   0  0  0  0  0  0  0  0  0  0  0  0
    6.5929   14.4981    7.3100 C   0  0  0  0  0  3  0  0  0  0  0  0
    6.5443   15.9977    7.0939 C   0  0  0  0  0  0  0  0  0  0  0  0
    6.8393   13.8270    6.0749 O   0  0  0  0  0  0  0  0  0  0  0  0
    5.5520   13.2769    5.8271 C   0  0  0  0  0  0  0  0  0  0  0  0
    5.5266   11.8440    5.6046 C   0  0  0  0  0  0  0  0  0  0  0  0
    5.0422   10.8410    6.3352 C   0  0  0  0  0  0  0  0  0  0  0  0
    5.1271    9.5294    5.6517 N   0  0  0  0  0  0  0  0  0  0  0  0
    5.8627    9.4987    4.3848 C   0  0  0  0  0  0  0  0  0  0  0  0
    5.1238   10.0617    3.3773 C   0  0  0  0  0  0  0  0  0  0  0  0
    5.6891   10.1024    2.1009 C   0  0  0  0  0  0  0  0  0  0  0  0
    6.1933   10.1549    0.9620 N   0  0  0  0  0  0  0  0  0  0  0  0
    3.2770    9.6467    9.5083 C   0  0  0  0  0  0  0  0  0  0  0  0
    3.2966   10.6121   10.3676 C   0  0  0  0  0  0  0  0  0  0  0  0
    2.8310   10.6746   11.6403 C   0  0  0  0  0  0  0  0  0  0  0  0
    2.2776   10.6735   12.6998 C   0  0  0  0  0  0  0  0  0  0  0  0
    2.7659   11.0544   13.9892 C   0  0  0  0  0  0  0  0  0  0  0  0
    3.1800   11.3671   15.1154 C   0  0  0  0  0  0  0  0  0  0  0  0
    3.6648   11.7353   16.4098 C   0  0  0  0  0  0  0  0  0  0  0  0
  1  2  1  0
  2  3  2  3
  3  4  1  0
  4  5  2  0
  5  6  1  0
  6  7  2  3
  7  8  1  0
  8  9  2  3
  9 10  1  0
 10 11  1  0
 10 12  1  0
 12 13  1  0
 13 14  1  0
 14 15  2  3
 15 16  1  0
 16 17  1  0
 17 18  2  3
 18 19  1  0
 19 20  3  0
  5 21  1  0
 21 22  2  3
 22 23  1  0
 23 24  2  3
 24 25  1  0
 25 26  3  0
 26 27  1  0
 16  3  1  0
 15  6  1  0
M  RAD  1  10   2
M  END
>  <docking_score>  (2) 
-3.024

$$$$

     RDKit          3D

 27 28  0  0  0  0  0  0  0  0999 V2000
   15.7979   -3.0624   -7.7706 C   0  0  0  0  0  0  0  0  0  0  0  0
   16.6839   -1.9835   -7.5017 C   0  0  0  0  0  0  0  0  0  0  0  0
   17.4363   -1.7473   -6.4301 C   0  0  0  0  0  0  0  0  0  0  0  0
   18.2219   -0.5411   -6.3873 C   0  0  0  0  0  0  0  0  0  0  0  0
   19.1785   -0.2678   -5.5281 C   0  0  0  0  0  0  0  0  0  0  0  0
   19.5431   -1.2839   -4.4644 C   0  0  0  0  0  0  0  0  0  0  0  0
   20.4084   -0.8073   -3.6259 C   0  0  0  0  0  0  0  0  0  0  0  0
   21.0891   -1.3162   -2.4774 C   0  0  0  0  0  0  0  0  0  0  0  0
   20.8039   -2.0712   -1.6254 C   0  0  0  0  0  0  0  0  0  0  0  0
   20.3435   -2.9688   -0.6927 C   0  0  0  0  0  3  0  0  0  0  0  0
   21.3587   -3.6715    0.1869 C   0  0  0  0  0  0  0  0  0  0  0  0
   19.5009   -3.9235   -1.3370 O   0  0  0  0  0  0  0  0  0  0  0  0
   20.0049   -3.8478   -2.6642 C   0  0  0  0  0  0  0  0  0  0  0  0
   19.0129   -3.5716   -3.6853 C   0  0  0  0  0  0  0  0  0  0  0  0
   18.8034   -2.5034   -4.4531 C   0  0  0  0  0  0  0  0  0  0  0  0
   17.7359   -2.7103   -5.4593 N   0  0  0  0  0  0  0  0  0  0  0  0
   16.9728   -3.9569   -5.3559 C   0  0  0  0  0  0  0  0  0  0  0  0
   16.6632   -4.2330   -4.0497 C   0  0  0  0  0  0  0  0  0  0  0  0
   15.9388   -5.3973   -3.7853 C   0  0  0  0  0  0  0  0  0  0  0  0
   15.2799   -6.4277   -3.5433 N   0  0  0  0  0  0  0  0  0  0  0  0
   19.7973    1.0394   -5.4885 C   0  0  0  0  0  0  0  0  0  0  0  0
   19.2159    2.1938   -5.5035 C   0  0  0  0  0  0  0  0  0  0  0  0
   19.7349    3.4470   -5.4897 C   0  0  0  0  0  0  0  0  0  0  0  0
   20.1861    4.5434   -5.6431 C   0  0  0  0  0  0  0  0  0  0  0  0
   20.6097    5.5041   -4.6717 C   0  0  0  0  0  0  0  0  0  0  0  0
   20.9669    6.3525   -3.8409 C   0  0  0  0  0  0  0  0  0  0  0  0
   21.3818    7.3227   -2.8752 C   0  0  0  0  0  0  0  0  0  0  0  0
  1  2  1  0
  2  3  2  3
  3  4  1  0
  4  5  2  0
  5  6  1  0
  6  7  2  3
  7  8  1  0
  8  9  2  3
  9 10  1  0
 10 11  1  0
 10 12  1  0
 12 13  1  0
 13 14  1  0
 14 15  2  3
 15 16  1  0
 16 17  1  0
 17 18  2  3
 18 19  1  0
 19 20  3  0
  5 21  1  0
 21 22  2  3
 22 23  1  0
 23 24  2  3
 24 25  1  0
 25 26  3  0
 26 27  1  0
 16  3  1  0
 15  6  1  0
M  RAD  1  10   2
M  END
>  <docking_score>  (3) 
-2.198

$$$$
