
     RDKit          3D

 45 49  0  0  0  0  0  0  0  0999 V2000
   18.1075   -5.0617   -5.3053 C   0  0  0  0  0  0  0  0  0  0  0  0
   17.7560   -6.1518   -4.6655 C   0  0  0  0  0  0  0  0  0  0  0  0
   17.6511   -6.3116   -3.1962 C   0  0  0  0  0  0  0  0  0  0  0  0
   17.4262   -7.3634   -5.4663 C   0  0  2  0  0  0  0  0  0  0  0  0
   17.3548   -7.0712   -6.9378 C   0  0  0  0  0  0  0  0  0  0  0  0
   16.0172   -6.6475   -7.4104 C   0  0  0  0  0  0  0  0  0  0  0  0
   15.8888   -5.3070   -7.9998 C   0  0  0  0  0  3  0  0  0  0  0  0
   16.9880   -4.6950   -8.7148 C   0  0  0  0  0  0  0  0  0  0  0  0
   14.9065   -4.4766   -7.2825 C   0  0  1  0  0  0  0  0  0  0  0  0
   14.2820   -5.2832   -6.1690 C   0  0  0  0  0  0  0  0  0  0  0  0
   15.3096   -5.7686   -5.1688 C   0  0  0  0  0  0  0  0  0  0  0  0
   14.9966   -7.2237   -4.8521 C   0  0  2  0  0  0  0  0  0  0  0  0
   14.5079   -7.2565   -3.4178 C   0  0  0  0  0  0  0  0  0  0  0  0
   16.2282   -8.0879   -4.9314 C   0  0  1  0  0  0  0  0  0  0  0  0
   15.9465   -9.2502   -5.8581 C   0  0  0  0  0  0  0  0  0  0  0  0
   17.3129   -9.8400   -6.2189 C   0  0  0  0  0  3  0  0  0  0  0  0
   17.2303  -11.2954   -6.5537 C   0  0  0  0  0  3  0  0  0  0  0  0
   17.9362  -11.5492   -7.8719 C   0  0  1  0  0  0  0  0  0  0  0  0
   16.9791  -12.3445   -8.7400 C   0  0  0  0  0  0  0  0  0  0  0  0
   18.2903  -10.2195   -8.5241 C   0  0  0  0  0  0  0  0  0  0  0  0
   19.7855  -10.0951   -8.6392 C   0  0  0  0  0  0  0  0  0  0  0  0
   20.2954   -8.9254   -7.8223 C   0  0  1  0  0  0  0  0  0  0  0  0
   21.2133   -9.4441   -6.7404 C   0  0  0  0  0  0  0  0  0  0  0  0
   21.1004   -8.0014   -8.7119 C   0  0  0  0  0  0  0  0  0  0  0  0
   21.3812   -6.7434   -8.0065 C   0  0  0  0  0  0  0  0  0  0  0  0
   20.5608   -5.7039   -7.9591 C   0  0  0  0  0  0  0  0  0  0  0  0
   19.2545   -5.7199   -8.6311 C   0  0  0  0  0  0  0  0  0  0  0  0
   18.3114   -4.7199   -7.9238 C   0  0  1  0  0  0  0  0  0  0  0  0
   18.9550   -3.3556   -8.3142 C   0  0  0  0  0  0  0  0  0  0  0  0
   18.2336   -4.8092   -6.6094 N   0  0  0  0  0  0  0  0  0  0  0  0
   18.5349   -3.6917   -5.6914 C   0  0  2  0  0  0  0  0  0  0  0  0
   20.3010   -3.3134   -5.7419 S   0  0  0  0  0  0  0  0  0  0  0  0
   20.6896   -2.3158   -4.2769 C   0  0  0  0  0  0  0  0  0  0  0  0
   19.8128   -1.1139   -4.1610 C   0  0  1  0  0  0  0  0  0  0  0  0
   20.3999    0.1243   -4.7710 C   0  0  0  0  0  0  0  0  0  0  0  0
   21.0973    0.8865   -3.6459 C   0  0  0  0  0  0  0  0  0  0  0  0
   18.3815   -1.3485   -4.5093 C   0  0  1  0  0  0  0  0  0  0  0  0
   17.5373   -0.9684   -3.3124 C   0  0  0  0  0  0  0  0  0  0  0  0
   17.9398   -0.6084   -5.7525 C   0  0  2  0  0  0  0  0  0  0  0  0
   17.9504    0.8178   -5.3986 N   0  0  0  0  0  0  0  0  0  0  0  0
   16.4926   -0.9799   -6.0052 C   0  0  0  0  0  0  0  0  0  0  0  0
   15.8880   -1.7272   -4.8594 C   0  0  0  0  0  3  0  0  0  0  0  0
   15.1553   -2.9806   -5.2823 C   0  0  0  0  0  0  0  0  0  0  0  0
   15.3719   -3.1606   -6.7703 C   0  0  2  0  0  0  0  0  0  0  0  0
   14.5360   -2.0779   -7.4595 C   0  0  0  0  0  2  0  0  0  0  0  0
  1  2  2  3
  2  3  1  0
  2  4  1  0
  4  5  1  6
  5  6  1  0
  6  7  1  0
  7  8  1  0
  7  9  1  0
  9 10  1  1
 10 11  1  0
 11 12  1  0
 12 13  1  1
 12 14  1  0
 14 15  1  6
 15 16  1  0
 16 17  1  0
 17 18  1  0
 18 19  1  6
 18 20  1  0
 20 21  1  0
 21 22  1  0
 22 23  1  1
 22 24  1  0
 24 25  1  0
 25 26  2  3
 26 27  1  0
 27 28  1  0
 28 29  1  1
 28 30  1  0
 30 31  1  0
 31 32  1  1
 32 33  1  0
 33 34  1  0
 34 35  1  6
 35 36  1  0
 34 37  1  0
 37 38  1  1
 37 39  1  0
 39 40  1  1
 39 41  1  0
 41 42  1  0
 42 43  1  0
 43 44  1  0
 44 45  1  6
 30  1  1  0
 31  1  1  0
 14  4  1  0
 28  8  1  0
 44  9  1  0
M  RAD  5   7   2  16   2  17   2  42   2  45   3
M  END
>  <docking_score>  (1) 
-0.40500000000000003

$$$$

     RDKit          3D

 45 49  0  0  0  0  0  0  0  0999 V2000
    5.6349   11.8892    5.9809 C   0  0  0  0  0  0  0  0  0  0  0  0
    6.6271   12.5658    6.5093 C   0  0  0  0  0  0  0  0  0  0  0  0
    8.0318   12.5753    6.0379 C   0  0  0  0  0  0  0  0  0  0  0  0
    6.3459   13.4141    7.7005 C   0  0  2  0  0  0  0  0  0  0  0  0
    4.8763   13.5158    7.9930 C   0  0  0  0  0  0  0  0  0  0  0  0
    4.1921   14.6287    7.2960 C   0  0  0  0  0  0  0  0  0  0  0  0
    3.1180   14.2915    6.3509 C   0  0  0  0  0  3  0  0  0  0  0  0
    2.2911   13.1197    6.5442 C   0  0  0  0  0  0  0  0  0  0  0  0
    3.3891   14.8022    4.9965 C   0  0  1  0  0  0  0  0  0  0  0  0
    4.6879   15.5728    4.9991 C   0  0  0  0  0  0  0  0  0  0  0  0
    5.8609   14.7150    5.4237 C   0  0  0  0  0  0  0  0  0  0  0  0
    6.7019   15.5288    6.3963 C   0  0  2  0  0  0  0  0  0  0  0  0
    8.0006   15.8454    5.6820 C   0  0  0  0  0  0  0  0  0  0  0  0
    7.0452   14.7379    7.6319 C   0  0  1  0  0  0  0  0  0  0  0  0
    6.6321   15.5359    8.8492 C   0  0  0  0  0  0  0  0  0  0  0  0
    6.6181   14.5443   10.0160 C   0  0  0  0  0  3  0  0  0  0  0  0
    6.8757   15.2124   11.3292 C   0  0  0  0  0  3  0  0  0  0  0  0
    5.8096   14.7946   12.3238 C   0  0  1  0  0  0  0  0  0  0  0  0
    5.2640   16.0659   12.9471 C   0  0  0  0  0  0  0  0  0  0  0  0
    4.7123   14.0251   11.6009 C   0  0  0  0  0  0  0  0  0  0  0  0
    4.6521   12.6164   12.1267 C   0  0  0  0  0  0  0  0  0  0  0  0
    4.9759   11.6172   11.0348 C   0  0  1  0  0  0  0  0  0  0  0  0
    6.2300   10.8647   11.4130 C   0  0  0  0  0  0  0  0  0  0  0  0
    3.8481   10.6133   10.9189 C   0  0  0  0  0  0  0  0  0  0  0  0
    4.0205    9.8017    9.7061 C   0  0  0  0  0  0  0  0  0  0  0  0
    3.6051   10.1511    8.4973 C   0  0  0  0  0  0  0  0  0  0  0  0
    2.9123   11.4241    8.2569 C   0  0  0  0  0  0  0  0  0  0  0  0
    3.1103   11.8348    6.7799 C   0  0  1  0  0  0  0  0  0  0  0  0
    2.2581   10.7598    6.0408 C   0  0  0  0  0  0  0  0  0  0  0  0
    4.3469   11.8080    6.3196 N   0  0  0  0  0  0  0  0  0  0  0  0
    4.7708   11.0101    5.1508 C   0  0  2  0  0  0  0  0  0  0  0  0
    4.6875    9.2489    5.5457 S   0  0  0  0  0  0  0  0  0  0  0  0
    5.6659    8.3617    4.3015 C   0  0  0  0  0  0  0  0  0  0  0  0
    5.2463    8.6937    2.9084 C   0  0  1  0  0  0  0  0  0  0  0  0
    4.2383    7.7411    2.3372 C   0  0  0  0  0  0  0  0  0  0  0  0
    4.0537    6.6225    3.3609 C   0  0  0  0  0  0  0  0  0  0  0  0
    4.9283   10.1327    2.6776 C   0  0  1  0  0  0  0  0  0  0  0  0
    5.8249   10.6411    1.5698 C   0  0  0  0  0  0  0  0  0  0  0  0
    3.4693   10.3794    2.3628 C   0  0  2  0  0  0  0  0  0  0  0  0
    3.2362    9.7867    1.0385 N   0  0  0  0  0  0  0  0  0  0  0  0
    3.2919   11.8758    2.2036 C   0  0  0  0  0  0  0  0  0  0  0  0
    4.5982   12.6021    2.1520 C   0  0  0  0  0  3  0  0  0  0  0  0
    4.6548   13.7982    3.0754 C   0  0  0  0  0  0  0  0  0  0  0  0
    3.3731   13.8184    3.8818 C   0  0  2  0  0  0  0  0  0  0  0  0
    2.2637   14.2397    2.9134 C   0  0  0  0  0  2  0  0  0  0  0  0
  1  2  2  3
  2  3  1  0
  2  4  1  0
  4  5  1  6
  5  6  1  0
  6  7  1  0
  7  8  1  0
  7  9  1  0
  9 10  1  1
 10 11  1  0
 11 12  1  0
 12 13  1  6
 12 14  1  0
 14 15  1  1
 15 16  1  0
 16 17  1  0
 17 18  1  0
 18 19  1  6
 18 20  1  0
 20 21  1  0
 21 22  1  0
 22 23  1  1
 22 24  1  0
 24 25  1  0
 25 26  2  3
 26 27  1  0
 27 28  1  0
 28 29  1  6
 28 30  1  0
 30 31  1  0
 31 32  1  1
 32 33  1  0
 33 34  1  0
 34 35  1  1
 35 36  1  0
 34 37  1  0
 37 38  1  6
 37 39  1  0
 39 40  1  6
 39 41  1  0
 41 42  1  0
 42 43  1  0
 43 44  1  0
 44 45  1  6
 30  1  1  0
 31  1  1  0
 14  4  1  0
 28  8  1  0
 44  9  1  0
M  RAD  5   7   2  16   2  17   2  42   2  45   3
M  END
>  <docking_score>  (2) 
1.03

$$$$
