
     RDKit          3D

 23 24  0  0  0  0  0  0  0  0999 V2000
    7.0924   12.8322    1.1927 C   0  0  0  0  0  0  0  0  0  0  0  0
    6.9530   14.2220    1.5325 O   0  0  0  0  0  0  0  0  0  0  0  0
    7.4959   14.5310    2.7813 C   0  0  0  0  0  0  0  0  0  0  0  0
    8.7811   15.0541    2.8301 C   0  0  0  0  0  0  0  0  0  0  0  0
    9.5061   15.2497    1.5316 C   0  0  0  0  0  0  0  0  0  0  0  0
    9.3233   15.3624    4.0479 C   0  0  0  0  0  0  0  0  0  0  0  0
    8.5978   15.1531    5.1977 C   0  0  0  0  0  0  0  0  0  0  0  0
    7.3295   14.6350    5.1313 C   0  0  0  0  0  0  0  0  0  0  0  0
    6.6069   14.4264    6.2933 O   0  0  0  0  0  0  0  0  0  0  0  0
    6.7340   14.3041    3.8948 C   0  0  0  0  0  0  0  0  0  0  0  0
    5.4034   13.8075    3.9383 C   0  0  0  0  0  0  0  0  0  0  0  0
    5.0140   12.4450    4.0474 C   0  0  0  0  0  0  0  0  0  0  0  0
    4.1066   11.8402    3.2348 C   0  0  0  0  0  0  0  0  0  0  0  0
    3.5427   12.7867    2.1962 C   0  0  0  0  0  0  0  0  0  0  0  0
    3.7418   10.4563    3.2785 C   0  0  0  0  0  0  0  0  0  0  0  0
    4.5857    9.3697    3.6131 C   0  0  0  0  0  0  0  0  0  0  0  0
    4.1729    7.9980    3.7528 C   0  0  0  0  0  0  0  0  0  0  0  0
    3.1685    7.4139    3.2936 O   0  0  0  0  0  0  0  0  0  0  0  0
    5.0064    7.1516    4.5198 O   0  0  0  0  0  0  0  0  0  0  0  0
    9.4325   15.5821    6.3373 C   0  0  0  0  0  0  0  0  0  0  0  0
    9.0653   15.5227    7.5351 O   0  0  0  0  0  0  0  0  0  0  0  0
   10.6149   16.0269    5.8151 O   0  0  0  0  0  0  0  0  0  0  0  0
   10.6452   15.9260    4.4004 C   0  0  0  0  0  0  0  0  0  0  0  0
  1  2  1  0
  2  3  1  0
  3  4  2  0
  4  5  1  0
  4  6  1  0
  6  7  2  0
  7  8  1  0
  8  9  1  0
  8 10  2  0
 10 11  1  0
 11 12  1  0
 12 13  2  0
 13 14  1  0
 13 15  1  0
 15 16  1  0
 16 17  1  0
 17 18  2  0
 17 19  1  0
  7 20  1  0
 20 21  2  0
 20 22  1  0
 22 23  1  0
 10  3  1  0
 23  6  1  0
M  END
>  <docking_score>  (1) 
-4.2030000000000003

$$$$

     RDKit          3D

 23 24  0  0  0  0  0  0  0  0999 V2000
   19.1096   -2.3454   -1.7235 C   0  0  0  0  0  0  0  0  0  0  0  0
   17.8319   -2.9954   -1.8287 O   0  0  0  0  0  0  0  0  0  0  0  0
   17.1679   -2.6948   -3.0197 C   0  0  0  0  0  0  0  0  0  0  0  0
   16.0976   -1.8116   -2.9728 C   0  0  0  0  0  0  0  0  0  0  0  0
   15.7213   -1.2394   -1.6384 C   0  0  0  0  0  0  0  0  0  0  0  0
   15.4401   -1.5080   -4.1337 C   0  0  0  0  0  0  0  0  0  0  0  0
   15.8417   -2.0745   -5.3211 C   0  0  0  0  0  0  0  0  0  0  0  0
   16.9009   -2.9454   -5.3493 C   0  0  0  0  0  0  0  0  0  0  0  0
   17.2976   -3.5120   -6.5483 O   0  0  0  0  0  0  0  0  0  0  0  0
   17.6057   -3.2845   -4.1740 C   0  0  0  0  0  0  0  0  0  0  0  0
   18.7085   -4.1684   -4.3221 C   0  0  0  0  0  0  0  0  0  0  0  0
   18.6460   -5.5454   -4.6681 C   0  0  0  0  0  0  0  0  0  0  0  0
   19.6850   -6.4141   -4.5450 C   0  0  0  0  0  0  0  0  0  0  0  0
   20.9317   -5.7477   -4.0026 C   0  0  0  0  0  0  0  0  0  0  0  0
   19.6345   -7.8176   -4.8240 C   0  0  0  0  0  0  0  0  0  0  0  0
   18.5371   -8.6847   -4.6030 C   0  0  0  0  0  0  0  0  0  0  0  0
   17.5902   -9.1113   -5.5993 C   0  0  0  0  0  0  0  0  0  0  0  0
   16.7240  -10.0102   -5.5471 O   0  0  0  0  0  0  0  0  0  0  0  0
   17.6135   -8.4326   -6.8395 O   0  0  0  0  0  0  0  0  0  0  0  0
   14.9582   -1.5569   -6.3847 C   0  0  0  0  0  0  0  0  0  0  0  0
   15.0559   -1.8778   -7.5932 O   0  0  0  0  0  0  0  0  0  0  0  0
   14.0725   -0.7070   -5.7833 O   0  0  0  0  0  0  0  0  0  0  0  0
   14.2882   -0.6138   -4.3842 C   0  0  0  0  0  0  0  0  0  0  0  0
  1  2  1  0
  2  3  1  0
  3  4  2  0
  4  5  1  0
  4  6  1  0
  6  7  2  0
  7  8  1  0
  8  9  1  0
  8 10  2  0
 10 11  1  0
 11 12  1  0
 12 13  2  0
 13 14  1  0
 13 15  1  0
 15 16  1  0
 16 17  1  0
 17 18  2  0
 17 19  1  0
  7 20  1  0
 20 21  2  0
 20 22  1  0
 22 23  1  0
 10  3  1  0
 23  6  1  0
M  END
>  <docking_score>  (2) 
-4.1029999999999998

$$$$

     RDKit          3D

 23 24  0  0  0  0  0  0  0  0999 V2000
   19.3337   -1.7544   -1.7422 C   0  0  0  0  0  0  0  0  0  0  0  0
   18.2738   -2.7095   -1.9165 O   0  0  0  0  0  0  0  0  0  0  0  0
   17.5534   -2.5096   -3.0959 C   0  0  0  0  0  0  0  0  0  0  0  0
   16.3662   -1.7927   -3.0296 C   0  0  0  0  0  0  0  0  0  0  0  0
   15.9322   -1.2814   -1.6880 C   0  0  0  0  0  0  0  0  0  0  0  0
   15.6523   -1.5889   -4.1790 C   0  0  0  0  0  0  0  0  0  0  0  0
   16.1129   -2.0907   -5.3740 C   0  0  0  0  0  0  0  0  0  0  0  0
   17.2876   -2.7972   -5.4214 C   0  0  0  0  0  0  0  0  0  0  0  0
   17.7432   -3.2999   -6.6279 O   0  0  0  0  0  0  0  0  0  0  0  0
   18.0538   -3.0292   -4.2585 C   0  0  0  0  0  0  0  0  0  0  0  0
   19.2714   -3.7421   -4.4265 C   0  0  0  0  0  0  0  0  0  0  0  0
   19.4161   -5.0522   -4.9580 C   0  0  0  0  0  0  0  0  0  0  0  0
   19.1176   -6.1918   -4.2787 C   0  0  0  0  0  0  0  0  0  0  0  0
   18.6180   -5.9126   -2.8770 C   0  0  0  0  0  0  0  0  0  0  0  0
   19.1917   -7.5203   -4.8077 C   0  0  0  0  0  0  0  0  0  0  0  0
   18.1937   -8.1886   -5.5577 C   0  0  0  0  0  0  0  0  0  0  0  0
   16.8642   -7.6988   -5.8104 C   0  0  0  0  0  0  0  0  0  0  0  0
   15.8167   -7.8480   -5.1461 O   0  0  0  0  0  0  0  0  0  0  0  0
   16.6760   -6.9265   -6.9798 O   0  0  0  0  0  0  0  0  0  0  0  0
   15.1458   -1.7084   -6.4219 C   0  0  0  0  0  0  0  0  0  0  0  0
   15.2695   -2.0117   -7.6326 O   0  0  0  0  0  0  0  0  0  0  0  0
   14.1552   -0.9971   -5.8042 O   0  0  0  0  0  0  0  0  0  0  0  0
   14.3780   -0.8730   -4.4087 C   0  0  0  0  0  0  0  0  0  0  0  0
  1  2  1  0
  2  3  1  0
  3  4  2  0
  4  5  1  0
  4  6  1  0
  6  7  2  0
  7  8  1  0
  8  9  1  0
  8 10  2  0
 10 11  1  0
 11 12  1  0
 12 13  2  0
 13 14  1  0
 13 15  1  0
 15 16  1  0
 16 17  1  0
 17 18  2  0
 17 19  1  0
  7 20  1  0
 20 21  2  0
 20 22  1  0
 22 23  1  0
 10  3  1  0
 23  6  1  0
M  END
>  <docking_score>  (3) 
-4.0510000000000002

$$$$
