
     RDKit          3D

 26 28  0  0  0  0  0  0  0  0999 V2000
   19.0774   -1.9532   -2.0937 C   0  0  0  0  0  0  0  0  0  0  0  0
   19.6370   -1.6578   -3.2628 C   0  0  0  0  0  0  0  0  0  0  0  0
   19.5376   -2.5985   -4.3822 C   0  0  0  0  0  0  0  0  0  0  0  0
   18.2527   -2.6124   -5.1031 C   0  0  2  0  0  0  0  0  0  0  0  0
   17.3829   -1.4362   -4.9496 C   0  0  0  0  0  3  0  0  0  0  0  0
   15.9229   -1.6785   -4.9750 C   0  0  0  0  0  0  0  0  0  0  0  0
   15.4819   -2.8565   -5.7763 C   0  0  0  0  0  0  0  0  0  0  0  0
   15.2579   -0.4407   -5.5932 C   0  0  0  0  0  0  0  0  0  0  0  0
   15.3178   -1.8073   -3.5815 C   0  0  0  0  0  0  0  0  0  0  0  0
   16.4119   -1.7806   -2.5356 C   0  0  0  0  0  0  0  0  0  0  0  0
   16.9932   -3.1679   -2.4594 C   0  0  0  0  0  0  0  0  0  0  0  0
   18.3369   -3.1855   -1.8037 C   0  0  0  0  0  3  0  0  0  0  0  0
   19.0945   -4.4463   -2.0629 C   0  0  0  0  0  0  0  0  0  0  0  0
   19.1553   -4.7907   -3.5388 C   0  0  2  0  0  0  0  0  0  0  0  0
   17.8126   -4.9049   -4.1743 C   0  0  0  0  0  0  0  0  0  0  0  0
   17.6027   -3.9159   -5.2976 C   0  0  2  0  0  0  0  0  0  0  0  0
   18.0802   -4.6860   -6.8926 S   0  0  0  0  0  0  0  0  0  0  0  0
   16.6774   -5.4425   -7.6318 C   0  0  0  0  0  0  0  0  0  0  0  0
   16.6870   -6.5191   -8.3685 C   0  0  0  0  0  0  0  0  0  0  0  0
   17.8347   -7.3010   -8.7241 C   0  0  0  0  0  0  0  0  0  0  0  0
   18.6066   -7.9645   -7.9263 C   0  0  0  0  0  0  0  0  0  0  0  0
   19.7548   -8.7222   -8.4680 C   0  0  0  0  0  0  0  0  0  0  0  0
   18.3637   -7.9828   -6.4682 C   0  0  0  0  0  0  0  0  0  0  0  0
   19.6217   -7.9797   -5.6531 C   0  0  0  0  0  0  0  0  0  0  0  0
   19.2102   -7.3243   -4.0053 S   0  0  0  0  0  0  0  0  0  0  0  0
   20.0123   -5.8291   -3.7916 O   0  0  0  0  0  0  0  0  0  0  0  0
  1  2  2  3
  2  3  1  0
  3  4  1  0
  4  5  1  1
  5  6  1  0
  6  7  1  0
  6  8  1  0
  6  9  1  0
  9 10  1  0
 10 11  1  0
 11 12  1  0
 12 13  1  0
 14 13  1  1
 14 15  1  0
 15 16  1  0
 16 17  1  6
 17 18  1  0
 18 19  2  3
 19 20  1  0
 20 21  2  3
 21 22  1  0
 21 23  1  0
 23 24  1  0
 24 25  1  0
 25 26  1  0
 12  1  1  0
 16  4  1  0
 26 14  1  0
M  RAD  2   5   2  12   2
M  END
>  <docking_score>  (1) 
-6.298

$$$$

     RDKit          3D

 26 28  0  0  0  0  0  0  0  0999 V2000
   15.6374   -0.7183   -5.4519 C   0  0  0  0  0  0  0  0  0  0  0  0
   15.1873   -1.4225   -4.4181 C   0  0  0  0  0  0  0  0  0  0  0  0
   15.6166   -2.8116   -4.2342 C   0  0  0  0  0  0  0  0  0  0  0  0
   16.9612   -3.0026   -3.6629 C   0  0  2  0  0  0  0  0  0  0  0  0
   17.5522   -1.8662   -2.9398 C   0  0  0  0  0  3  0  0  0  0  0  0
   19.0217   -1.7123   -3.0258 C   0  0  0  0  0  0  0  0  0  0  0  0
   19.7888   -2.9762   -3.2220 C   0  0  0  0  0  0  0  0  0  0  0  0
   19.5019   -1.0964   -1.7042 C   0  0  0  0  0  0  0  0  0  0  0  0
   19.4538   -0.7298   -4.1087 C   0  0  0  0  0  0  0  0  0  0  0  0
   18.2497   -0.2678   -4.9013 C   0  0  0  0  0  0  0  0  0  0  0  0
   17.9511   -1.3321   -5.9243 C   0  0  0  0  0  0  0  0  0  0  0  0
   16.5641   -1.2207   -6.4716 C   0  0  0  0  0  3  0  0  0  0  0  0
   16.1127   -2.4612   -7.1703 C   0  0  0  0  0  0  0  0  0  0  0  0
   16.3142   -3.7053   -6.3264 C   0  0  2  0  0  0  0  0  0  0  0  0
   17.7239   -3.8964   -5.8836 C   0  0  0  0  0  0  0  0  0  0  0  0
   17.8772   -3.9004   -4.3801 C   0  0  2  0  0  0  0  0  0  0  0  0
   17.7741   -5.6222   -3.7557 S   0  0  0  0  0  0  0  0  0  0  0  0
   19.3835   -6.3220   -3.6711 C   0  0  0  0  0  0  0  0  0  0  0  0
   19.6841   -7.5766   -3.8642 C   0  0  0  0  0  0  0  0  0  0  0  0
   18.7711   -8.6349   -4.1827 C   0  0  0  0  0  0  0  0  0  0  0  0
   18.0495   -8.7505   -5.2497 C   0  0  0  0  0  0  0  0  0  0  0  0
   17.1554   -9.9162   -5.4156 C   0  0  0  0  0  0  0  0  0  0  0  0
   18.0994   -7.7315   -6.3196 C   0  0  0  0  0  0  0  0  0  0  0  0
   16.7707   -7.4789   -6.9661 C   0  0  0  0  0  0  0  0  0  0  0  0
   16.8256   -5.8182   -7.7099 S   0  0  0  0  0  0  0  0  0  0  0  0
   15.7213   -4.8079   -6.8827 O   0  0  0  0  0  0  0  0  0  0  0  0
  1  2  2  3
  2  3  1  0
  3  4  1  0
  4  5  1  6
  5  6  1  0
  6  7  1  0
  6  8  1  0
  6  9  1  0
  9 10  1  0
 10 11  1  0
 11 12  1  0
 12 13  1  0
 14 13  1  6
 14 15  1  0
 15 16  1  0
 16 17  1  1
 17 18  1  0
 18 19  2  3
 19 20  1  0
 20 21  2  3
 21 22  1  0
 21 23  1  0
 23 24  1  0
 24 25  1  0
 25 26  1  0
 12  1  1  0
 16  4  1  0
 26 14  1  0
M  RAD  2   5   2  12   2
M  END
>  <docking_score>  (2) 
-5.9740000000000002

$$$$

     RDKit          3D

 26 28  0  0  0  0  0  0  0  0999 V2000
    4.2656    7.9865    4.2480 C   0  0  0  0  0  0  0  0  0  0  0  0
    5.3925    8.1151    4.9414 C   0  0  0  0  0  0  0  0  0  0  0  0
    6.1177    9.3886    4.9329 C   0  0  0  0  0  0  0  0  0  0  0  0
    5.5713   10.4497    5.7969 C   0  0  2  0  0  0  0  0  0  0  0  0
    4.6683   10.0352    6.8815 C   0  0  0  0  0  3  0  0  0  0  0  0
    3.5798   10.9726    7.2380 C   0  0  0  0  0  0  0  0  0  0  0  0
    3.8693   12.4150    6.9932 C   0  0  0  0  0  0  0  0  0  0  0  0
    3.3082   10.8182    8.7410 C   0  0  0  0  0  0  0  0  0  0  0  0
    2.2593   10.6376    6.5535 C   0  0  0  0  0  0  0  0  0  0  0  0
    2.4544    9.4956    5.5791 C   0  0  0  0  0  0  0  0  0  0  0  0
    3.0149   10.0805    4.3094 C   0  0  0  0  0  0  0  0  0  0  0  0
    3.6510    9.0443    3.4391 C   0  0  0  0  0  3  0  0  0  0  0  0
    4.5422    9.6299    2.3934 C   0  0  0  0  0  0  0  0  0  0  0  0
    5.5456   10.6093    2.9719 C   0  0  2  0  0  0  0  0  0  0  0  0
    4.9126   11.7224    3.7334 C   0  0  0  0  0  0  0  0  0  0  0  0
    5.3360   11.7642    5.1835 C   0  0  2  0  0  0  0  0  0  0  0  0
    6.7846   12.8740    5.3699 S   0  0  0  0  0  0  0  0  0  0  0  0
    6.2423   14.5034    5.7411 C   0  0  0  0  0  0  0  0  0  0  0  0
    6.8296   15.6085    5.3728 C   0  0  0  0  0  0  0  0  0  0  0  0
    8.0289   15.7209    4.5957 C   0  0  0  0  0  0  0  0  0  0  0  0
    8.2066   15.3403    3.3726 C   0  0  0  0  0  0  0  0  0  0  0  0
    9.5192   15.5347    2.7205 C   0  0  0  0  0  0  0  0  0  0  0  0
    7.1142   14.7081    2.6029 C   0  0  0  0  0  0  0  0  0  0  0  0
    7.5824   13.6185    1.6861 C   0  0  0  0  0  0  0  0  0  0  0  0
    6.1651   12.5231    1.3615 S   0  0  0  0  0  0  0  0  0  0  0  0
    6.4848   10.9908    2.0504 O   0  0  0  0  0  0  0  0  0  0  0  0
  1  2  2  3
  2  3  1  0
  3  4  1  0
  4  5  1  6
  5  6  1  0
  6  7  1  0
  6  8  1  0
  6  9  1  0
  9 10  1  0
 10 11  1  0
 11 12  1  0
 12 13  1  0
 14 13  1  6
 14 15  1  0
 15 16  1  0
 16 17  1  6
 17 18  1  0
 18 19  2  3
 19 20  1  0
 20 21  2  3
 21 22  1  0
 21 23  1  0
 23 24  1  0
 24 25  1  0
 25 26  1  0
 12  1  1  0
 16  4  1  0
 26 14  1  0
M  RAD  2   5   2  12   2
M  END
>  <docking_score>  (3) 
-5.5449999999999999

$$$$
