
     RDKit          3D

 31 31  0  0  0  0  0  0  0  0999 V2000
    3.7931    8.4567    8.2631 C   0  0  0  0  0  0  0  0  0  0  0  0
    3.5596    7.0473    7.8167 C   0  0  1  0  0  0  0  0  0  0  0  0
    2.2578    6.4701    8.3263 C   0  0  0  0  0  0  0  0  0  0  0  0
    3.6950    6.8502    6.3339 C   0  0  0  0  0  0  0  0  0  0  0  0
    3.4805    8.1178    5.5456 C   0  0  0  0  0  0  0  0  0  0  0  0
    2.9565    7.7307    4.1802 C   0  0  0  0  0  0  0  0  0  0  0  0
    4.0060    7.9495    3.0942 C   0  0  1  0  0  0  0  0  0  0  0  0
    4.0359    6.6573    2.2805 C   0  0  0  0  0  0  0  0  0  0  0  0
    3.4623    9.0212    2.1784 C   0  0  0  0  0  3  0  0  0  0  0  0
    4.3826   10.1923    2.0269 C   0  0  0  0  0  3  0  0  0  0  0  0
    5.4235   10.2863    3.1071 C   0  0  0  0  0  0  0  0  0  0  0  0
    6.6968   10.8001    2.4683 C   0  0  0  0  0  3  0  0  0  0  0  0
    6.7160   12.2866    2.3393 C   0  0  1  0  0  0  0  0  0  0  0  0
    6.8183   12.7548    0.9895 N   0  0  0  0  0  0  0  0  0  0  0  0
    5.6855   12.9910    3.1609 C   0  0  0  0  0  0  0  0  0  0  0  0
    6.3903   13.9902    4.0495 C   0  0  1  0  0  0  0  0  0  0  0  0
    6.4394   15.3659    3.4255 C   0  0  0  0  0  0  0  0  0  0  0  0
    5.8484   14.0074    5.4532 C   0  0  0  0  0  3  0  0  0  0  0  0
    5.1807   15.3229    5.7871 C   0  0  0  0  0  0  0  0  0  0  0  0
    5.6771   15.9291    7.0616 C   0  0  2  0  0  0  0  0  0  0  0  0
    7.0489   15.8817    7.2129 O   0  0  0  0  0  0  0  0  0  0  0  0
    4.9138   15.5017    8.2768 C   0  0  0  0  0  3  0  0  0  0  0  0
    5.6771   14.5098    9.0958 C   0  0  0  0  0  0  0  0  0  0  0  0
    7.1681   14.5724    9.1417 C   0  0  0  0  0  0  0  0  0  0  0  0
    5.0863   13.5616    9.7949 C   0  0  0  0  0  0  0  0  0  0  0  0
    3.6321   13.3397    9.8749 C   0  0  0  0  0  0  0  0  0  0  0  0
    3.3021   12.3908   11.4005 S   0  0  0  0  0  0  0  0  0  0  0  0
    2.6407   10.7555   10.9861 C   0  0  0  0  0  0  0  0  0  0  0  0
    3.6630    9.8787   10.3204 C   0  0  0  0  0  0  0  0  0  0  0  0
    2.9718    8.8438    9.4650 C   0  0  2  0  0  0  0  0  0  0  0  0
    2.5386    7.7633   10.2010 O   0  0  0  0  0  0  0  0  0  0  0  0
  1  2  1  0
  2  3  1  6
  2  4  1  0
  4  5  1  0
  5  6  1  0
  6  7  1  0
  7  8  1  6
  7  9  1  0
  9 10  1  0
 10 11  1  0
 11 12  1  0
 12 13  1  0
 13 14  1  6
 13 15  1  0
 15 16  1  0
 16 17  1  6
 16 18  1  0
 18 19  1  0
 19 20  1  0
 20 21  1  1
 20 22  1  0
 22 23  1  0
 23 24  1  0
 23 25  2  3
 25 26  1  0
 26 27  1  0
 27 28  1  0
 28 29  1  0
 29 30  1  0
 30 31  1  1
 30  1  1  0
M  RAD  5   9   2  10   2  12   2  18   2  22   2
M  END
>  <docking_score>  (1) 
-4.8220000000000001

$$$$

     RDKit          3D

 31 31  0  0  0  0  0  0  0  0999 V2000
    4.2504    9.3051   12.7135 C   0  0  0  0  0  0  0  0  0  0  0  0
    3.7952    7.8794   12.6935 C   0  0  1  0  0  0  0  0  0  0  0  0
    2.6464    7.6086   13.6393 C   0  0  0  0  0  0  0  0  0  0  0  0
    3.4976    7.3567   11.3173 C   0  0  0  0  0  0  0  0  0  0  0  0
    3.1695    8.4463   10.3277 C   0  0  0  0  0  0  0  0  0  0  0  0
    2.2587    7.8558    9.2740 C   0  0  0  0  0  0  0  0  0  0  0  0
    2.9783    7.6930    7.9381 C   0  0  1  0  0  0  0  0  0  0  0  0
    2.6823    6.2666    7.4792 C   0  0  0  0  0  0  0  0  0  0  0  0
    2.2847    8.6118    6.9595 C   0  0  0  0  0  3  0  0  0  0  0  0
    3.2131    9.5856    6.3029 C   0  0  0  0  0  3  0  0  0  0  0  0
    4.5172    9.7607    7.0292 C   0  0  0  0  0  0  0  0  0  0  0  0
    5.5980    9.9468    5.9848 C   0  0  0  0  0  3  0  0  0  0  0  0
    5.6937   11.3552    5.5012 C   0  0  1  0  0  0  0  0  0  0  0  0
    5.4521   11.5090    4.0978 N   0  0  0  0  0  0  0  0  0  0  0  0
    4.9891   12.3529    6.3622 C   0  0  0  0  0  0  0  0  0  0  0  0
    5.9872   13.4100    6.7760 C   0  0  1  0  0  0  0  0  0  0  0  0
    5.9655   14.6025    5.8478 C   0  0  0  0  0  0  0  0  0  0  0  0
    5.8599   13.7981    8.2243 C   0  0  0  0  0  3  0  0  0  0  0  0
    5.4136   15.2339    8.3894 C   0  0  0  0  0  0  0  0  0  0  0  0
    6.2895   16.0210    9.3122 C   0  0  2  0  0  0  0  0  0  0  0  0
    7.6415   15.8173    9.1184 O   0  0  0  0  0  0  0  0  0  0  0  0
    5.8640   15.9697   10.7468 C   0  0  0  0  0  3  0  0  0  0  0  0
    6.7470   15.0773   11.5600 C   0  0  0  0  0  0  0  0  0  0  0  0
    8.1922   14.9414   11.2108 C   0  0  0  0  0  0  0  0  0  0  0  0
    6.3034   14.3892   12.5928 C   0  0  0  0  0  0  0  0  0  0  0  0
    4.9163   14.3926   13.0891 C   0  0  0  0  0  0  0  0  0  0  0  0
    4.9522   13.8423   14.8305 S   0  0  0  0  0  0  0  0  0  0  0  0
    4.0791   12.2641   15.0032 C   0  0  0  0  0  0  0  0  0  0  0  0
    4.8061   11.1336   14.3318 C   0  0  0  0  0  0  0  0  0  0  0  0
    3.8276   10.0471   13.9543 C   0  0  2  0  0  0  0  0  0  0  0  0
    3.5351    9.2171   15.0136 O   0  0  0  0  0  0  0  0  0  0  0  0
  1  2  1  0
  2  3  1  1
  2  4  1  0
  4  5  1  0
  5  6  1  0
  6  7  1  0
  7  8  1  6
  7  9  1  0
  9 10  1  0
 10 11  1  0
 11 12  1  0
 12 13  1  0
 13 14  1  6
 13 15  1  0
 15 16  1  0
 16 17  1  6
 16 18  1  0
 18 19  1  0
 19 20  1  0
 20 21  1  1
 20 22  1  0
 22 23  1  0
 23 24  1  0
 23 25  2  3
 25 26  1  0
 26 27  1  0
 27 28  1  0
 28 29  1  0
 29 30  1  0
 30 31  1  1
 30  1  1  0
M  RAD  5   9   2  10   2  12   2  18   2  22   2
M  END
>  <docking_score>  (2) 
-3.7559999999999998

$$$$

     RDKit          3D

 31 31  0  0  0  0  0  0  0  0999 V2000
    2.9067    7.3576    5.8925 C   0  0  0  0  0  0  0  0  0  0  0  0
    2.3252    6.2815    6.7551 C   0  0  1  0  0  0  0  0  0  0  0  0
    2.9839    4.9353    6.5516 C   0  0  0  0  0  0  0  0  0  0  0  0
    2.2641    6.6391    8.2126 C   0  0  0  0  0  0  0  0  0  0  0  0
    3.2600    7.7015    8.6044 C   0  0  0  0  0  0  0  0  0  0  0  0
    3.6073    7.4953   10.0622 C   0  0  0  0  0  0  0  0  0  0  0  0
    3.0072    8.5886   10.9418 C   0  0  1  0  0  0  0  0  0  0  0  0
    2.3215    7.8614   12.0967 C   0  0  0  0  0  0  0  0  0  0  0  0
    4.1688    9.3468   11.5407 C   0  0  0  0  0  3  0  0  0  0  0  0
    4.1235   10.8165   11.2595 C   0  0  0  0  0  3  0  0  0  0  0  0
    3.2202   11.1853   10.1163 C   0  0  0  0  0  0  0  0  0  0  0  0
    2.5619   12.5041   10.4638 C   0  0  0  0  0  3  0  0  0  0  0  0
    3.4242   13.6791   10.1438 C   0  0  1  0  0  0  0  0  0  0  0  0
    3.7617   14.4832   11.2801 N   0  0  0  0  0  0  0  0  0  0  0  0
    4.5745   13.3730    9.2402 C   0  0  0  0  0  0  0  0  0  0  0  0
    4.4891   14.2864    8.0389 C   0  0  1  0  0  0  0  0  0  0  0  0
    5.3172   15.5377    8.2200 C   0  0  0  0  0  0  0  0  0  0  0  0
    4.7822   13.5775    6.7444 C   0  0  0  0  0  3  0  0  0  0  0  0
    6.0484   14.0874    6.0927 C   0  0  0  0  0  0  0  0  0  0  0  0
    5.8604   14.4698    4.6585 C   0  0  2  0  0  0  0  0  0  0  0  0
    4.7100   15.1929    4.4129 O   0  0  0  0  0  0  0  0  0  0  0  0
    6.0944   13.3487    3.6940 C   0  0  0  0  0  3  0  0  0  0  0  0
    4.8128   12.8074    3.1449 C   0  0  0  0  0  0  0  0  0  0  0  0
    3.6416   13.7141    2.9567 C   0  0  0  0  0  0  0  0  0  0  0  0
    4.6616   11.5414    2.8112 C   0  0  0  0  0  0  0  0  0  0  0  0
    5.6968   10.4991    2.9237 C   0  0  0  0  0  0  0  0  0  0  0  0
    5.2443    9.1469    1.7821 S   0  0  0  0  0  0  0  0  0  0  0  0
    4.8732    7.6401    2.7174 C   0  0  0  0  0  0  0  0  0  0  0  0
    3.6122    7.7658    3.5246 C   0  0  0  0  0  0  0  0  0  0  0  0
    3.6622    6.8237    4.7037 C   0  0  2  0  0  0  0  0  0  0  0  0
    3.3032    5.5390    4.3609 O   0  0  0  0  0  0  0  0  0  0  0  0
  1  2  1  0
  2  3  1  1
  2  4  1  0
  4  5  1  0
  5  6  1  0
  6  7  1  0
  7  8  1  1
  7  9  1  0
  9 10  1  0
 10 11  1  0
 11 12  1  0
 12 13  1  0
 13 14  1  1
 13 15  1  0
 15 16  1  0
 16 17  1  1
 16 18  1  0
 18 19  1  0
 19 20  1  0
 20 21  1  1
 20 22  1  0
 22 23  1  0
 23 24  1  0
 23 25  2  3
 25 26  1  0
 26 27  1  0
 27 28  1  0
 28 29  1  0
 29 30  1  0
 30 31  1  6
 30  1  1  0
M  RAD  5   9   2  10   2  12   2  18   2  22   2
M  END
>  <docking_score>  (3) 
-3.54

$$$$
