
     RDKit          3D

  9  9  0  0  0  0  0  0  0  0999 V2000
    5.8784   -1.7625   -6.0016 C   0  0  0  0  0  0  0  0  0  0  0  0
    6.3079   -1.7953   -7.3421 O   0  0  0  0  0  0  0  0  0  0  0  0
    5.7875   -0.7431   -8.0747 C   0  0  0  0  0  3  0  0  0  0  0  0
    6.4604    0.4200   -7.6762 O   0  0  0  0  0  0  0  0  0  0  0  0
    6.1769    0.7047   -6.3645 C   0  0  2  0  0  0  0  0  0  0  0  0
    6.1349    2.1896   -6.0654 C   0  0  0  0  0  0  0  0  0  0  0  0
    6.6935    2.4167   -4.8022 O   0  0  0  0  0  0  0  0  0  0  0  0
    7.1896    0.0630   -5.4708 C   0  0  0  0  0  3  0  0  0  0  0  0
    6.9511   -1.2836   -5.2415 O   0  0  0  0  0  0  0  0  0  0  0  0
  1  2  1  0
  2  3  1  0
  3  4  1  0
  4  5  1  0
  5  6  1  6
  6  7  1  0
  5  8  1  0
  8  9  1  0
  9  1  1  0
M  RAD  2   3   2   8   2
M  END
>  <docking_score>  (1) 
-4.4649999999999999

$$$$

     RDKit          3D

  9  9  0  0  0  0  0  0  0  0999 V2000
    6.0137    0.7858   -6.6482 C   0  0  0  0  0  0  0  0  0  0  0  0
    7.2569    0.4314   -6.0901 O   0  0  0  0  0  0  0  0  0  0  0  0
    7.1287   -0.5679   -5.1418 C   0  0  0  0  0  3  0  0  0  0  0  0
    6.8660   -1.7638   -5.8240 O   0  0  0  0  0  0  0  0  0  0  0  0
    5.6497   -1.6917   -6.4541 C   0  0  2  0  0  0  0  0  0  0  0  0
    4.9210   -3.0190   -6.5119 C   0  0  0  0  0  0  0  0  0  0  0  0
    5.6666   -3.9158   -7.2859 O   0  0  0  0  0  0  0  0  0  0  0  0
    5.8247   -1.1785   -7.8479 C   0  0  0  0  0  3  0  0  0  0  0  0
    5.9549    0.2002   -7.9176 O   0  0  0  0  0  0  0  0  0  0  0  0
  1  2  1  0
  2  3  1  0
  3  4  1  0
  4  5  1  0
  5  6  1  6
  6  7  1  0
  5  8  1  0
  8  9  1  0
  9  1  1  0
M  RAD  2   3   2   8   2
M  END
>  <docking_score>  (2) 
-4.0389999999999997

$$$$

     RDKit          3D

  9  9  0  0  0  0  0  0  0  0999 V2000
    7.5676   -0.5926   -5.4304 C   0  0  0  0  0  0  0  0  0  0  0  0
    6.7818    0.5209   -5.7844 O   0  0  0  0  0  0  0  0  0  0  0  0
    6.4383    0.5027   -7.1246 C   0  0  0  0  0  3  0  0  0  0  0  0
    5.4662   -0.4922   -7.2960 O   0  0  0  0  0  0  0  0  0  0  0  0
    6.0020   -1.7275   -7.0333 C   0  0  2  0  0  0  0  0  0  0  0  0
    5.4141   -2.8334   -7.8861 C   0  0  0  0  0  0  0  0  0  0  0  0
    5.7491   -4.0706   -7.3236 O   0  0  0  0  0  0  0  0  0  0  0  0
    5.8044   -2.0753   -5.5923 C   0  0  0  0  0  3  0  0  0  0  0  0
    6.7303   -1.4819   -4.7479 O   0  0  0  0  0  0  0  0  0  0  0  0
  1  2  1  0
  2  3  1  0
  3  4  1  0
  4  5  1  0
  5  6  1  6
  6  7  1  0
  5  8  1  0
  8  9  1  0
  9  1  1  0
M  RAD  2   3   2   8   2
M  END
>  <docking_score>  (3) 
-3.698

$$$$
