
     RDKit          3D

 10 10  0  0  0  0  0  0  0  0999 V2000
   13.5078   -0.0632   -4.6792 C   0  0  0  0  0  0  0  0  0  0  0  0
   14.4850   -1.1664   -4.5950 C   0  0  1  0  0  0  0  0  0  0  0  0
   15.6567   -1.0094   -5.5752 C   0  0  0  0  0  0  0  0  0  0  0  0
   16.1579   -2.4555   -5.7162 C   0  0  2  0  0  0  0  0  0  0  0  0
   15.1414   -3.0896   -6.4710 O   0  0  0  0  0  0  0  0  0  0  0  0
   16.2163   -3.1498   -4.3988 C   0  0  2  0  0  0  0  0  0  0  0  0
   15.4732   -4.3420   -4.3935 O   0  0  0  0  0  0  0  0  0  0  0  0
   15.9198   -2.3315   -3.2139 C   0  0  1  0  0  0  0  0  0  0  0  0
   17.1248   -1.8293   -2.6927 O   0  0  0  0  0  0  0  0  0  0  0  0
   15.0460   -1.3061   -3.3515 O   0  0  0  0  0  0  0  0  0  0  0  0
  2  1  1  1
  2  3  1  0
  3  4  1  0
  4  5  1  6
  4  6  1  0
  6  7  1  6
  6  8  1  0
  8  9  1  6
  8 10  1  0
 10  2  1  0
M  END
>  <docking_score>  (1) 
-3.6600000000000001

$$$$

     RDKit          3D

 10 10  0  0  0  0  0  0  0  0999 V2000
   17.2736    5.9655   -5.4245 C   0  0  0  0  0  0  0  0  0  0  0  0
   18.4623    6.1348   -4.5657 C   0  0  1  0  0  0  0  0  0  0  0  0
   19.6648    6.7308   -5.3122 C   0  0  0  0  0  0  0  0  0  0  0  0
   20.8464    6.2718   -4.4430 C   0  0  2  0  0  0  0  0  0  0  0  0
   20.9238    4.8801   -4.6919 O   0  0  0  0  0  0  0  0  0  0  0  0
   20.5589    6.4369   -2.9900 C   0  0  2  0  0  0  0  0  0  0  0  0
   20.7121    5.2352   -2.2786 O   0  0  0  0  0  0  0  0  0  0  0  0
   19.2950    7.1038   -2.6444 C   0  0  1  0  0  0  0  0  0  0  0  0
   19.5361    8.4777   -2.4718 O   0  0  0  0  0  0  0  0  0  0  0  0
   18.2443    6.9498   -3.4847 O   0  0  0  0  0  0  0  0  0  0  0  0
  2  1  1  6
  2  3  1  0
  3  4  1  0
  4  5  1  1
  4  6  1  0
  6  7  1  1
  6  8  1  0
  8  9  1  6
  8 10  1  0
 10  2  1  0
M  END
>  <docking_score>  (2) 
-3.609

$$$$

     RDKit          3D

 10 10  0  0  0  0  0  0  0  0999 V2000
   18.3570   -1.5531   -2.3625 C   0  0  0  0  0  0  0  0  0  0  0  0
   17.5698   -2.6335   -2.9887 C   0  0  1  0  0  0  0  0  0  0  0  0
   16.6691   -3.3779   -1.9922 C   0  0  0  0  0  0  0  0  0  0  0  0
   16.4457   -4.7240   -2.6995 C   0  0  2  0  0  0  0  0  0  0  0  0
   17.7025   -5.3682   -2.5973 O   0  0  0  0  0  0  0  0  0  0  0  0
   16.1679   -4.5439   -4.1525 C   0  0  2  0  0  0  0  0  0  0  0  0
   17.0593   -5.2723   -4.9578 O   0  0  0  0  0  0  0  0  0  0  0  0
   16.0315   -3.1588   -4.6262 C   0  0  1  0  0  0  0  0  0  0  0  0
   14.6727   -2.8000   -4.6030 O   0  0  0  0  0  0  0  0  0  0  0  0
   16.7451   -2.1972   -3.9936 O   0  0  0  0  0  0  0  0  0  0  0  0
  2  1  1  1
  2  3  1  0
  3  4  1  0
  4  5  1  6
  4  6  1  0
  6  7  1  6
  6  8  1  0
  8  9  1  1
  8 10  1  0
 10  2  1  0
M  END
>  <docking_score>  (3) 
-3.4180000000000001

$$$$
