
     RDKit          3D

 41 44  0  0  0  0  0  0  0  0999 V2000
   15.0598   -3.7146   -5.9187 C   0  0  1  0  0  0  0  0  0  0  0  0
   16.1804   -4.1804   -5.0714 C   0  0  2  0  0  0  0  0  0  0  0  0
   16.0203   -5.6570   -4.7705 C   0  0  0  0  0  0  0  0  0  0  0  0
   16.1272   -3.4538   -3.7432 C   0  0  0  0  0  0  0  0  0  0  0  0
   16.7535   -2.0763   -3.8707 C   0  0  0  0  0  0  0  0  0  0  0  0
   18.2539   -2.2401   -3.6903 C   0  0  0  0  0  0  0  0  0  0  0  0
   18.7353   -1.0253   -2.9232 C   0  0  1  0  0  0  0  0  0  0  0  0
   18.8341   -1.3435   -1.4531 C   0  0  0  0  0  0  0  0  0  0  0  0
   20.0341   -0.5345   -3.4986 C   0  0  0  0  0  3  0  0  0  0  0  0
   20.3952   -1.1707   -4.8041 C   0  0  0  0  0  0  0  0  0  0  0  0
   19.9259   -0.3708   -6.0013 C   0  0  0  0  0  0  0  0  0  0  0  0
   19.9964   -1.2991   -7.2170 C   0  0  2  0  0  0  0  0  0  0  0  0
   21.3827   -1.1157   -7.8183 C   0  0  0  0  0  0  0  0  0  0  0  0
   18.9926   -0.9333   -8.2651 C   0  0  0  0  0  3  0  0  0  0  0  0
   18.1254   -2.0908   -8.6948 C   0  0  0  0  0  0  0  0  0  0  0  0
   17.7350   -2.9701   -7.5261 C   0  0  2  0  0  0  0  0  0  0  0  0
   18.9977   -3.5106   -6.8422 C   0  0  0  0  0  2  0  0  0  0  0  0
   17.0178   -4.1673   -8.0906 C   0  0  0  0  0  0  0  0  0  0  0  0
   15.5272   -3.9375   -8.3004 C   0  0  0  0  0  0  0  0  0  0  0  0
   14.8136   -4.5283   -7.1554 C   0  0  1  0  0  0  0  0  0  0  0  0
   15.1492   -5.9929   -7.0171 C   0  0  0  0  0  0  0  0  0  0  0  0
   16.6395   -6.1625   -7.0606 C   0  0  0  0  0  0  0  0  0  0  0  0
   17.0773   -7.3219   -7.8779 C   0  0  0  0  0  3  0  0  0  0  0  0
   17.9465   -8.2957   -7.1140 C   0  0  1  0  0  0  0  0  0  0  0  0
   19.2235   -8.2727   -7.6793 O   0  0  0  0  0  0  0  0  0  0  0  0
   18.0862   -7.7355   -5.4004 S   0  0  0  0  0  0  0  0  0  0  0  0
   19.6700   -8.0226   -4.8065 O   0  0  0  0  0  0  0  0  0  0  0  0
   20.6426   -7.8539   -5.7727 C   0  0  0  0  0  0  0  0  0  0  0  0
   20.0225   -7.3443   -7.0372 C   0  0  0  0  0  3  0  0  0  0  0  0
   21.0675   -6.7595   -7.9772 C   0  0  0  0  0  0  0  0  0  0  0  0
   20.5599   -5.5362   -8.6712 C   0  0  0  0  0  0  0  0  0  0  0  0
   13.3533   -4.2895   -6.9410 C   0  0  1  0  0  0  0  0  0  0  0  0
   12.3451   -5.7975   -7.2153 S   0  0  0  0  0  0  0  0  0  0  0  0
   13.6675   -4.2116   -5.4515 C   0  0  1  0  0  0  0  0  0  0  0  0
   13.6514   -5.4534   -4.6710 C   0  0  0  0  0  2  0  0  0  0  0  0
   13.5156   -2.8910   -4.7937 C   0  0  2  0  0  0  0  0  0  0  0  0
   12.1337   -2.3177   -4.9378 C   0  0  0  0  0  0  0  0  0  0  0  0
   14.5379   -2.3655   -5.7919 C   0  0  2  0  0  0  0  0  0  0  0  0
   14.0405   -1.5756   -6.8959 C   0  0  1  0  0  0  0  0  0  0  0  0
   13.6216   -0.1814   -6.6972 C   0  0  0  0  0  2  0  0  0  0  0  0
   14.3757   -1.9833   -8.2824 C   0  0  0  0  0  1  0  0  0  0  0  0
  1  2  1  1
  2  3  1  1
  2  4  1  0
  4  5  1  0
  5  6  1  0
  6  7  1  0
  7  8  1  1
  7  9  1  0
  9 10  1  0
 10 11  1  0
 11 12  1  0
 12 13  1  6
 12 14  1  0
 14 15  1  0
 15 16  1  0
 16 17  1  6
 16 18  1  0
 18 19  1  0
 19 20  1  0
 20 21  1  1
 21 22  1  0
 22 23  1  0
 24 23  1  6
 24 25  1  0
 24 26  1  0
 26 27  1  0
 27 28  1  0
 28 29  1  0
 29 30  1  0
 30 31  1  0
 20 32  1  0
 32 33  1  1
 32 34  1  0
 34 35  1  1
 34 36  1  0
 36 37  1  6
 36 38  1  0
 38 39  1  6
 39 40  1  1
 39 41  1  0
 20  1  1  0
 34  1  1  0
 38  1  1  0
 29 25  1  0
M  RAD  8   9   2  14   2  17   3  23   2  29   2  35   3  40   3  41   2
M  END
>  <docking_score>  (1) 
137.53299999999999

$$$$
