
     RDKit          3D

 18 18  0  0  0  0  0  0  0  0999 V2000
   21.3380   -1.0713   -1.1999 C   0  0  0  0  0  0  0  0  0  0  0  0
   19.9015   -0.8062   -1.5321 C   0  0  0  0  0  0  0  0  0  0  0  0
   19.1744   -1.8349   -1.9115 C   0  0  0  0  0  0  0  0  0  0  0  0
   17.7808   -1.7030   -2.2566 C   0  0  0  0  0  0  0  0  0  0  0  0
   17.1408   -2.6741   -2.8755 C   0  0  0  0  0  0  0  0  0  0  0  0
   15.7747   -2.6999   -3.2834 C   0  0  0  0  0  0  0  0  0  0  0  0
   15.1606   -2.3747   -4.3577 C   0  0  0  0  0  0  0  0  0  0  0  0
   15.5548   -1.8619   -5.5750 N   0  0  0  0  0  0  0  0  0  0  0  0
   14.7998   -0.7282   -6.1306 C   0  0  0  0  0  0  0  0  0  0  0  0
   16.6588   -2.3449   -6.3713 C   0  0  2  0  0  0  0  0  0  0  0  0
   16.2161   -2.8419   -7.6986 C   0  0  0  0  0  0  0  0  0  0  0  0
   16.3655   -2.2319   -8.7400 O   0  0  0  0  0  0  0  0  0  0  0  0
   17.9009   -3.8647   -3.1760 N   0  0  0  0  0  0  0  0  0  0  0  0
   17.2635   -5.1953   -3.1774 C   0  0  0  0  0  3  0  0  0  0  0  0
   17.2128   -5.6311   -4.6325 C   0  0  1  0  0  0  0  0  0  0  0  0
   16.4998   -6.8771   -4.7882 N   0  0  0  0  0  0  0  0  0  0  0  0
   16.5172   -4.5267   -5.3936 C   0  0  0  0  0  0  0  0  0  0  0  0
   17.2917   -3.4599   -5.6279 C   0  0  0  0  0  0  0  0  0  0  0  0
  1  2  1  0
  2  3  2  3
  3  4  1  0
  4  5  2  3
  5  6  1  0
  6  7  2  3
  7  8  1  0
  8  9  1  0
  8 10  1  0
 10 11  1  6
 11 12  2  0
  5 13  1  0
 13 14  1  0
 14 15  1  0
 15 16  1  1
 15 17  1  0
 17 18  2  3
 18 10  1  0
M  RAD  1  14   2
M  END
>  <docking_score>  (1) 
-4.7759999999999998

$$$$

     RDKit          3D

 18 18  0  0  0  0  0  0  0  0999 V2000
   17.9326   -8.1924   -7.2036 C   0  0  0  0  0  0  0  0  0  0  0  0
   17.9640   -7.8943   -5.7358 C   0  0  0  0  0  0  0  0  0  0  0  0
   17.8045   -6.6391   -5.3756 C   0  0  0  0  0  0  0  0  0  0  0  0
   17.8161   -6.2309   -3.9929 C   0  0  0  0  0  0  0  0  0  0  0  0
   17.2361   -5.1110   -3.6117 C   0  0  0  0  0  0  0  0  0  0  0  0
   17.1597   -4.5704   -2.2945 C   0  0  0  0  0  0  0  0  0  0  0  0
   17.8864   -3.7604   -1.6216 C   0  0  0  0  0  0  0  0  0  0  0  0
   19.0494   -3.0672   -1.8805 N   0  0  0  0  0  0  0  0  0  0  0  0
   20.1197   -3.1009   -0.8718 C   0  0  0  0  0  0  0  0  0  0  0  0
   19.3186   -2.2947   -3.0709 C   0  0  2  0  0  0  0  0  0  0  0  0
   19.5515   -0.8602   -2.7663 C   0  0  0  0  0  0  0  0  0  0  0  0
   20.1110   -0.0852   -3.5181 O   0  0  0  0  0  0  0  0  0  0  0  0
   16.5894   -4.3315   -4.6411 N   0  0  0  0  0  0  0  0  0  0  0  0
   15.3802   -3.5381   -4.3493 C   0  0  0  0  0  3  0  0  0  0  0  0
   15.8128   -2.0824   -4.4100 C   0  0  1  0  0  0  0  0  0  0  0  0
   14.7412   -1.1945   -4.0245 N   0  0  0  0  0  0  0  0  0  0  0  0
   16.9838   -1.9367   -3.4665 C   0  0  0  0  0  0  0  0  0  0  0  0
   18.1359   -2.4115   -3.9563 C   0  0  0  0  0  0  0  0  0  0  0  0
  1  2  1  0
  2  3  2  3
  3  4  1  0
  4  5  2  3
  5  6  1  0
  6  7  2  3
  7  8  1  0
  8  9  1  0
  8 10  1  0
 10 11  1  1
 11 12  2  0
  5 13  1  0
 13 14  1  0
 14 15  1  0
 15 16  1  1
 15 17  1  0
 17 18  2  3
 18 10  1  0
M  RAD  1  14   2
M  END
>  <docking_score>  (2) 
-4.6289999999999996

$$$$

     RDKit          3D

 18 18  0  0  0  0  0  0  0  0999 V2000
   20.7714   -0.6854   -6.3540 C   0  0  0  0  0  0  0  0  0  0  0  0
   19.3734   -1.1834   -6.5580 C   0  0  0  0  0  0  0  0  0  0  0  0
   18.4573   -0.7608   -5.7136 C   0  0  0  0  0  0  0  0  0  0  0  0
   17.0786   -1.1713   -5.8094 C   0  0  0  0  0  0  0  0  0  0  0  0
   16.5276   -1.9197   -4.8755 C   0  0  0  0  0  0  0  0  0  0  0  0
   15.1885   -2.4067   -4.8225 C   0  0  0  0  0  0  0  0  0  0  0  0
   14.6144   -3.4772   -5.2244 C   0  0  0  0  0  0  0  0  0  0  0  0
   15.0427   -4.6127   -5.8783 N   0  0  0  0  0  0  0  0  0  0  0  0
   14.2555   -5.0958   -7.0232 C   0  0  0  0  0  0  0  0  0  0  0  0
   16.2125   -5.3875   -5.5358 C   0  0  2  0  0  0  0  0  0  0  0  0
   15.8689   -6.7811   -5.1553 C   0  0  0  0  0  0  0  0  0  0  0  0
   16.5961   -7.7380   -5.3410 O   0  0  0  0  0  0  0  0  0  0  0  0
   17.3682   -2.2924   -3.7619 N   0  0  0  0  0  0  0  0  0  0  0  0
   16.8076   -2.4629   -2.4079 C   0  0  0  0  0  3  0  0  0  0  0  0
   16.8581   -3.9546   -2.1213 C   0  0  1  0  0  0  0  0  0  0  0  0
   16.2254   -4.2744   -0.8632 N   0  0  0  0  0  0  0  0  0  0  0  0
   16.1425   -4.6413   -3.2611 C   0  0  0  0  0  0  0  0  0  0  0  0
   16.8671   -4.7231   -4.3841 C   0  0  0  0  0  0  0  0  0  0  0  0
  1  2  1  0
  2  3  2  3
  3  4  1  0
  4  5  2  3
  5  6  1  0
  6  7  2  3
  7  8  1  0
  8  9  1  0
  8 10  1  0
 10 11  1  1
 11 12  2  0
  5 13  1  0
 13 14  1  0
 14 15  1  0
 15 16  1  1
 15 17  1  0
 17 18  2  3
 18 10  1  0
M  RAD  1  14   2
M  END
>  <docking_score>  (3) 
-4.6079999999999997

$$$$
