
     RDKit          3D

 33 33  0  0  0  0  0  0  0  0999 V2000
    4.5710   10.2791   11.0010 C   0  0  0  0  0  0  0  0  0  0  0  0
    4.1925    8.8495   11.1028 C   0  0  1  0  0  0  0  0  0  0  0  0
    4.1483    8.2983   12.4862 C   0  0  0  0  0  0  0  0  0  0  0  0
    2.9839    8.5070   10.2769 C   0  0  0  0  0  0  0  0  0  0  0  0
    3.3325    7.4882    9.2019 C   0  0  0  0  0  0  0  0  0  0  0  0
    2.5514    7.8058    7.9344 C   0  0  0  0  0  0  0  0  0  0  0  0
    3.3646    7.5232    6.6948 C   0  0  1  0  0  0  0  0  0  0  0  0
    3.0432    6.1385    6.1529 C   0  0  0  0  0  0  0  0  0  0  0  0
    3.0710    8.5329    5.6086 C   0  0  0  0  0  3  0  0  0  0  0  0
    4.2397    9.5023    5.5066 C   0  0  0  0  0  0  0  0  0  0  0  0
    4.4440    9.8492    4.0456 C   0  0  0  0  0  0  0  0  0  0  0  0
    5.3316   11.0712    3.9861 C   0  0  0  0  0  3  0  0  0  0  0  0
    5.1578   11.7801    2.6708 C   0  0  0  0  0  3  0  0  0  0  0  0
    5.4909   13.2562    2.8173 C   0  0  0  0  0  2  0  0  0  0  0  0
    6.9462   13.3877    3.1633 C   0  0  0  0  0  0  0  0  0  0  0  0
    7.8368   13.4324    1.9371 C   0  0  0  0  0  0  0  0  0  0  0  0
    7.4179   12.2165    4.0084 C   0  0  0  0  0  0  0  0  0  0  0  0
    7.2330   14.6423    3.9819 C   0  0  0  0  0  0  0  0  0  0  0  0
    8.6369   14.4565    4.5478 C   0  0  0  0  0  0  0  0  0  0  0  0
    9.2150   15.7582    5.0476 C   0  0  0  0  0  0  0  0  0  0  0  0
    8.5202   16.0741    6.3649 C   0  0  0  0  0  0  0  0  0  0  0  0
    9.5689   16.0536    7.4644 C   0  0  0  0  0  0  0  0  0  0  0  0
    8.9162   15.7231    8.6398 O   0  0  0  0  0  0  0  0  0  0  0  0
    9.6828   16.0132    9.7703 C   0  0  0  0  0  0  0  0  0  0  0  0
    9.2038   15.1239   10.9022 C   0  0  0  0  0  3  0  0  0  0  0  0
    7.9483   14.3639   10.4938 C   0  0  2  0  0  0  0  0  0  0  0  0
    6.8170   15.1573   10.6445 O   0  0  0  0  0  0  0  0  0  0  0  0
    7.8230   13.0862   11.2850 C   0  0  0  0  0  3  0  0  0  0  0  0
    7.4056   13.4055   12.6945 C   0  0  0  0  0  0  0  0  0  0  0  0
    6.0178   12.8616   12.9984 C   0  0  0  0  0  0  0  0  0  0  0  0
    5.9592   11.3798   12.7287 C   0  0  0  0  0  0  0  0  0  0  0  0
    4.5665   11.0415   12.2739 C   0  0  2  0  0  0  0  0  0  0  0  0
    3.7007   10.4740   13.3475 C   0  0  0  0  0  2  0  0  0  0  0  0
  1  2  1  0
  2  3  1  1
  2  4  1  0
  4  5  1  0
  5  6  1  0
  6  7  1  0
  7  8  1  6
  7  9  1  0
  9 10  1  0
 10 11  1  0
 11 12  1  0
 12 13  1  0
 13 14  1  0
 14 15  1  0
 15 16  1  0
 15 17  1  0
 15 18  1  0
 18 19  1  0
 19 20  1  0
 20 21  1  0
 21 22  1  0
 22 23  1  0
 23 24  1  0
 24 25  1  0
 25 26  1  0
 26 27  1  1
 26 28  1  0
 28 29  1  0
 29 30  1  0
 30 31  1  0
 31 32  1  0
 32 33  1  1
 32  1  1  0
M  RAD  7   9   2  12   2  13   2  14   3  25   2  28   2  33   3
M  END
>  <docking_score>  (1) 
-5.758

$$$$

     RDKit          3D

 33 33  0  0  0  0  0  0  0  0999 V2000
    5.1219   11.9358    5.3950 C   0  0  0  0  0  0  0  0  0  0  0  0
    5.9885   11.9104    4.1926 C   0  0  1  0  0  0  0  0  0  0  0  0
    5.4640   11.1184    3.0450 C   0  0  0  0  0  0  0  0  0  0  0  0
    6.4892   13.2744    3.8068 C   0  0  0  0  0  0  0  0  0  0  0  0
    8.0071   13.3383    3.8891 C   0  0  0  0  0  0  0  0  0  0  0  0
    8.4268   14.7090    4.4017 C   0  0  0  0  0  0  0  0  0  0  0  0
    9.6363   14.6201    5.3001 C   0  0  1  0  0  0  0  0  0  0  0  0
   10.9070   14.8903    4.5086 C   0  0  0  0  0  0  0  0  0  0  0  0
    9.5571   15.6306    6.4217 C   0  0  0  0  0  3  0  0  0  0  0  0
    9.2076   14.9072    7.7142 C   0  0  0  0  0  0  0  0  0  0  0  0
    9.9673   15.5655    8.8484 C   0  0  0  0  0  0  0  0  0  0  0  0
    9.3423   15.1044   10.1450 C   0  0  0  0  0  3  0  0  0  0  0  0
    9.6574   16.0738   11.2511 C   0  0  0  0  0  3  0  0  0  0  0  0
    8.5837   16.0174   12.3259 C   0  0  0  0  0  2  0  0  0  0  0  0
    8.6076   14.6552   12.9573 C   0  0  0  0  0  0  0  0  0  0  0  0
    9.5923   14.5608   14.1064 C   0  0  0  0  0  0  0  0  0  0  0  0
    9.0030   13.5894   11.9492 C   0  0  0  0  0  0  0  0  0  0  0  0
    7.2401   14.2439   13.4929 C   0  0  0  0  0  0  0  0  0  0  0  0
    7.3347   12.7465   13.7659 C   0  0  0  0  0  0  0  0  0  0  0  0
    6.2118   12.2681   14.6541 C   0  0  0  0  0  0  0  0  0  0  0  0
    4.9557   12.2250   13.7950 C   0  0  0  0  0  0  0  0  0  0  0  0
    4.4972   10.7789   13.7078 C   0  0  0  0  0  0  0  0  0  0  0  0
    3.8070   10.6447   12.5152 O   0  0  0  0  0  0  0  0  0  0  0  0
    3.0388    9.4793   12.4767 C   0  0  0  0  0  0  0  0  0  0  0  0
    2.8183    9.1111   11.0216 C   0  0  0  0  0  3  0  0  0  0  0  0
    3.3325   10.2135   10.1047 C   0  0  2  0  0  0  0  0  0  0  0  0
    2.3972   11.2344    9.9833 O   0  0  0  0  0  0  0  0  0  0  0  0
    3.6978    9.6503    8.7542 C   0  0  0  0  0  3  0  0  0  0  0  0
    2.4445    9.3295    7.9866 C   0  0  0  0  0  0  0  0  0  0  0  0
    2.3049   10.2156    6.7578 C   0  0  0  0  0  0  0  0  0  0  0  0
    3.5288   10.1067    5.8848 C   0  0  0  0  0  0  0  0  0  0  0  0
    3.7391   11.4319    5.2063 C   0  0  2  0  0  0  0  0  0  0  0  0
    3.2348   11.4800    3.8035 C   0  0  0  0  0  2  0  0  0  0  0  0
  1  2  1  0
  2  3  1  6
  2  4  1  0
  4  5  1  0
  5  6  1  0
  6  7  1  0
  7  8  1  6
  7  9  1  0
  9 10  1  0
 10 11  1  0
 11 12  1  0
 12 13  1  0
 13 14  1  0
 14 15  1  0
 15 16  1  0
 15 17  1  0
 15 18  1  0
 18 19  1  0
 19 20  1  0
 20 21  1  0
 21 22  1  0
 22 23  1  0
 23 24  1  0
 24 25  1  0
 25 26  1  0
 26 27  1  6
 26 28  1  0
 28 29  1  0
 29 30  1  0
 30 31  1  0
 31 32  1  0
 32 33  1  6
 32  1  1  0
M  RAD  7   9   2  12   2  13   2  14   3  25   2  28   2  33   3
M  END
>  <docking_score>  (2) 
-3.1899999999999999

$$$$

     RDKit          3D

 33 33  0  0  0  0  0  0  0  0999 V2000
    8.3796   13.5180    5.5887 C   0  0  0  0  0  0  0  0  0  0  0  0
    7.9107   13.6260    4.1866 C   0  0  1  0  0  0  0  0  0  0  0  0
    8.5421   14.7115    3.3848 C   0  0  0  0  0  0  0  0  0  0  0  0
    7.8717   12.2987    3.4818 C   0  0  0  0  0  0  0  0  0  0  0  0
    6.4514   11.9484    3.0631 C   0  0  0  0  0  0  0  0  0  0  0  0
    6.2330   10.4507    3.2257 C   0  0  0  0  0  0  0  0  0  0  0  0
    4.8314   10.1406    3.6918 C   0  0  1  0  0  0  0  0  0  0  0  0
    3.9381    9.8097    2.5057 C   0  0  0  0  0  0  0  0  0  0  0  0
    4.8196    8.9583    4.6338 C   0  0  0  0  0  3  0  0  0  0  0  0
    4.6081    9.4609    6.0545 C   0  0  0  0  0  0  0  0  0  0  0  0
    3.7309    8.4648    6.7861 C   0  0  0  0  0  0  0  0  0  0  0  0
    3.8352    8.7634    8.2641 C   0  0  0  0  0  3  0  0  0  0  0  0
    3.4516    7.5529    9.0704 C   0  0  0  0  0  3  0  0  0  0  0  0
    4.1305    7.5863   10.4303 C   0  0  0  0  0  2  0  0  0  0  0  0
    3.6120    8.7689   11.1967 C   0  0  0  0  0  0  0  0  0  0  0  0
    2.3466    8.4547   11.9707 C   0  0  0  0  0  0  0  0  0  0  0  0
    3.2846    9.9252   10.2671 C   0  0  0  0  0  0  0  0  0  0  0  0
    4.6355    9.3040   12.1928 C   0  0  0  0  0  0  0  0  0  0  0  0
    4.1223   10.6754   12.6187 C   0  0  0  0  0  0  0  0  0  0  0  0
    4.8021   11.1612   13.8758 C   0  0  0  0  0  0  0  0  0  0  0  0
    6.2052   11.5990   13.4793 C   0  0  0  0  0  0  0  0  0  0  0  0
    6.3209   13.0919   13.7380 C   0  0  0  0  0  0  0  0  0  0  0  0
    7.2718   13.5822   12.8593 O   0  0  0  0  0  0  0  0  0  0  0  0
    7.7267   14.8505   13.2256 C   0  0  0  0  0  0  0  0  0  0  0  0
    8.2614   15.5341   11.9813 C   0  0  0  0  0  3  0  0  0  0  0  0
    8.3005   14.5620   10.8091 C   0  0  2  0  0  0  0  0  0  0  0  0
    9.4419   13.7704   10.8590 O   0  0  0  0  0  0  0  0  0  0  0  0
    8.2154   15.3076    9.5010 C   0  0  0  0  0  3  0  0  0  0  0  0
    9.5254   15.9942    9.2264 C   0  0  0  0  0  0  0  0  0  0  0  0
   10.2113   15.4099    8.0007 C   0  0  0  0  0  0  0  0  0  0  0  0
    9.2969   15.4687    6.8039 C   0  0  0  0  0  0  0  0  0  0  0  0
    9.6024   14.2891    5.9230 C   0  0  2  0  0  0  0  0  0  0  0  0
   10.4827   14.6122    4.7632 C   0  0  0  0  0  2  0  0  0  0  0  0
  1  2  1  0
  2  3  1  6
  2  4  1  0
  4  5  1  0
  5  6  1  0
  6  7  1  0
  7  8  1  6
  7  9  1  0
  9 10  1  0
 10 11  1  0
 11 12  1  0
 12 13  1  0
 13 14  1  0
 14 15  1  0
 15 16  1  0
 15 17  1  0
 15 18  1  0
 18 19  1  0
 19 20  1  0
 20 21  1  0
 21 22  1  0
 22 23  1  0
 23 24  1  0
 24 25  1  0
 25 26  1  0
 26 27  1  6
 26 28  1  0
 28 29  1  0
 29 30  1  0
 30 31  1  0
 31 32  1  0
 32 33  1  6
 32  1  1  0
M  RAD  7   9   2  12   2  13   2  14   3  25   2  28   2  33   3
M  END
>  <docking_score>  (3) 
-2.9460000000000002

$$$$
