
     RDKit          3D

 30 30  0  0  0  0  0  0  0  0999 V2000
   16.9760  -10.6275   -6.1005 C   0  0  0  0  0  0  0  0  0  0  0  0
   17.2050   -9.3095   -5.3959 C   0  0  0  0  0  0  0  0  0  0  0  0
   17.8657   -8.2867   -6.2864 C   0  0  0  0  0  0  0  0  0  0  0  0
   15.9345   -8.7448   -4.8062 C   0  0  0  0  0  0  0  0  0  0  0  0
   15.9895   -7.2301   -4.9034 C   0  0  0  0  0  0  0  0  0  0  0  0
   14.6631   -6.6443   -5.2583 C   0  0  0  0  0  0  0  0  0  0  0  0
   14.7284   -5.4371   -6.1327 C   0  0  1  0  0  0  0  0  0  0  0  0
   13.5755   -5.2833   -7.0689 C   0  0  0  0  0  0  0  0  0  0  0  0
   15.0097   -4.1610   -5.4125 C   0  0  1  0  0  0  0  0  0  0  0  0
   14.9756   -4.3263   -3.9262 C   0  0  0  0  0  0  0  0  0  0  0  0
   16.4051   -4.1841   -3.4065 C   0  0  0  0  0  0  0  0  0  0  0  0
   16.4617   -2.8893   -2.6270 C   0  0  2  0  0  0  0  0  0  0  0  0
   16.7678   -1.7568   -3.5870 C   0  0  0  0  0  0  0  0  0  0  0  0
   17.5383   -3.0355   -1.5770 C   0  0  0  0  0  3  0  0  0  0  0  0
   18.8619   -3.3242   -2.2246 C   0  0  0  0  0  0  0  0  0  0  0  0
   19.7353   -2.1044   -2.1981 C   0  0  2  0  0  0  0  0  0  0  0  0
   19.0352   -0.9826   -1.5995 N   0  0  0  0  0  1  0  0  0  0  0  0
   20.2099   -1.7159   -3.5825 C   0  0  0  0  0  0  0  0  0  0  0  0
   20.2008   -0.2260   -3.6829 C   0  0  0  0  0  3  0  0  0  0  0  0
   20.2790    0.2721   -5.1045 C   0  0  1  0  0  0  0  0  0  0  0  0
   19.0716    0.9059   -5.4266 O   0  0  0  0  0  0  0  0  0  0  0  0
   21.3722    1.3214   -5.1498 C   0  0  0  0  0  0  0  0  0  0  0  0
   20.5931   -0.8056   -6.0908 C   0  0  0  0  0  0  0  0  0  0  0  0
   19.4822   -1.0298   -7.0904 C   0  0  0  0  0  3  0  0  0  0  0  0
   18.5472   -1.9752   -6.4737 N   0  0  0  0  0  0  0  0  0  0  0  0
   18.6569   -3.2894   -7.0872 C   0  0  0  0  0  3  0  0  0  0  0  0
   18.7723   -4.3037   -5.9677 C   0  0  0  0  0  0  0  0  0  0  0  0
   17.3893   -4.7181   -5.5132 C   0  0  0  0  0  0  0  0  0  0  0  0
   16.3711   -3.6545   -5.8953 C   0  0  1  0  0  0  0  0  0  0  0  0
   16.3097   -3.5554   -7.3911 C   0  0  0  0  0  2  0  0  0  0  0  0
  1  2  1  0
  2  3  1  0
  2  4  1  0
  4  5  1  0
  5  6  1  0
  6  7  1  0
  7  8  1  1
  7  9  1  0
  9 10  1  1
 10 11  1  0
 11 12  1  0
 12 13  1  6
 12 14  1  0
 14 15  1  0
 15 16  1  0
 16 17  1  6
 16 18  1  0
 18 19  1  0
 19 20  1  0
 20 21  1  0
 20 22  1  1
 20 23  1  0
 23 24  1  0
 24 25  1  0
 25 26  1  0
 26 27  1  0
 27 28  1  0
 28 29  1  0
 29 30  1  6
 29  9  1  0
M  CHG  1  17   1
M  RAD  6  14   2  17   2  19   2  24   2  26   2  30   3
M  END
>  <docking_score>  (1) 
-4.2370000000000001

$$$$

     RDKit          3D

 30 30  0  0  0  0  0  0  0  0999 V2000
    9.2089   13.9809    3.5294 C   0  0  0  0  0  0  0  0  0  0  0  0
    8.1353   14.6390    2.6924 C   0  0  0  0  0  0  0  0  0  0  0  0
    8.4983   16.0476    2.2927 C   0  0  0  0  0  0  0  0  0  0  0  0
    7.7796   13.8253    1.4709 C   0  0  0  0  0  0  0  0  0  0  0  0
    6.6480   12.8797    1.8341 C   0  0  0  0  0  0  0  0  0  0  0  0
    7.1152   11.7537    2.6958 C   0  0  0  0  0  0  0  0  0  0  0  0
    6.0788   11.2009    3.6158 C   0  0  1  0  0  0  0  0  0  0  0  0
    5.8751    9.7256    3.5096 C   0  0  0  0  0  0  0  0  0  0  0  0
    6.2216   11.6226    5.0399 C   0  0  1  0  0  0  0  0  0  0  0  0
    5.9034   13.0705    5.2398 C   0  0  0  0  0  0  0  0  0  0  0  0
    4.5918   13.1585    6.0178 C   0  0  0  0  0  0  0  0  0  0  0  0
    4.9311   13.6945    7.3907 C   0  0  2  0  0  0  0  0  0  0  0  0
    5.3087   12.5318    8.2870 C   0  0  0  0  0  0  0  0  0  0  0  0
    3.7141   14.4248    7.9091 C   0  0  0  0  0  3  0  0  0  0  0  0
    2.5380   13.4940    7.9779 C   0  0  0  0  0  0  0  0  0  0  0  0
    2.2609   13.1041    9.4001 C   0  0  2  0  0  0  0  0  0  0  0  0
    3.2364   13.6976   10.2962 N   0  0  0  0  0  1  0  0  0  0  0  0
    2.2600   11.6015    9.5869 C   0  0  0  0  0  0  0  0  0  0  0  0
    2.9045   11.2892   10.8973 C   0  0  0  0  0  3  0  0  0  0  0  0
    3.3090    9.8420   11.0282 C   0  0  1  0  0  0  0  0  0  0  0  0
    4.7074    9.7680   11.0764 O   0  0  0  0  0  0  0  0  0  0  0  0
    2.7790    9.3496   12.3604 C   0  0  0  0  0  0  0  0  0  0  0  0
    2.7684    8.9773    9.9359 C   0  0  0  0  0  0  0  0  0  0  0  0
    3.8529    8.3587    9.0846 C   0  0  0  0  0  3  0  0  0  0  0  0
    4.1775    9.3368    8.0424 N   0  0  0  0  0  0  0  0  0  0  0  0
    3.6507    8.9168    6.7534 C   0  0  0  0  0  3  0  0  0  0  0  0
    2.9168   10.1003    6.1565 C   0  0  0  0  0  0  0  0  0  0  0  0
    3.8909   10.9668    5.3876 C   0  0  0  0  0  0  0  0  0  0  0  0
    5.3102   10.7214    5.8767 C   0  0  1  0  0  0  0  0  0  0  0  0
    5.6877    9.2999    5.5801 C   0  0  0  0  0  2  0  0  0  0  0  0
  1  2  1  0
  2  3  1  0
  2  4  1  0
  4  5  1  0
  5  6  1  0
  6  7  1  0
  7  8  1  1
  7  9  1  0
  9 10  1  6
 10 11  1  0
 11 12  1  0
 12 13  1  1
 12 14  1  0
 14 15  1  0
 15 16  1  0
 16 17  1  1
 16 18  1  0
 18 19  1  0
 19 20  1  0
 20 21  1  0
 20 22  1  1
 20 23  1  0
 23 24  1  0
 24 25  1  0
 25 26  1  0
 26 27  1  0
 27 28  1  0
 28 29  1  0
 29 30  1  6
 29  9  1  0
M  CHG  1  17   1
M  RAD  6  14   2  17   2  19   2  24   2  26   2  30   3
M  END
>  <docking_score>  (2) 
-2.7429999999999999

$$$$

     RDKit          3D

 30 30  0  0  0  0  0  0  0  0999 V2000
   10.7853   16.0743    5.8069 C   0  0  0  0  0  0  0  0  0  0  0  0
   10.2793   15.3884    4.5581 C   0  0  0  0  0  0  0  0  0  0  0  0
   10.2141   13.8890    4.7099 C   0  0  0  0  0  0  0  0  0  0  0  0
    8.9412   15.9260    4.1094 C   0  0  0  0  0  0  0  0  0  0  0  0
    8.7854   15.6526    2.6236 C   0  0  0  0  0  0  0  0  0  0  0  0
    8.5048   14.2127    2.3466 C   0  0  0  0  0  0  0  0  0  0  0  0
    7.1206   13.7708    2.6850 C   0  0  1  0  0  0  0  0  0  0  0  0
    6.2991   13.3445    1.5133 C   0  0  0  0  0  0  0  0  0  0  0  0
    7.0383   12.7724    3.7907 C   0  0  1  0  0  0  0  0  0  0  0  0
    6.5165   13.3691    5.0592 C   0  0  0  0  0  0  0  0  0  0  0  0
    5.1214   12.7979    5.3060 C   0  0  0  0  0  0  0  0  0  0  0  0
    5.2242   11.8959    6.5156 C   0  0  2  0  0  0  0  0  0  0  0  0
    5.6381   10.5118    6.0563 C   0  0  0  0  0  0  0  0  0  0  0  0
    3.8711   11.8779    7.1879 C   0  0  0  0  0  3  0  0  0  0  0  0
    2.8237   11.3744    6.2371 C   0  0  0  0  0  0  0  0  0  0  0  0
    2.4319    9.9686    6.5858 C   0  0  2  0  0  0  0  0  0  0  0  0
    3.2103    9.4807    7.7095 N   0  0  0  0  0  1  0  0  0  0  0  0
    2.6008    9.0250    5.4137 C   0  0  0  0  0  0  0  0  0  0  0  0
    3.1198    7.7227    5.9282 C   0  0  0  0  0  3  0  0  0  0  0  0
    3.6874    6.8415    4.8436 C   0  0  1  0  0  0  0  0  0  0  0  0
    5.0681    6.7128    5.0446 O   0  0  0  0  0  0  0  0  0  0  0  0
    3.0703    5.4677    5.0168 C   0  0  0  0  0  0  0  0  0  0  0  0
    3.3951    7.3397    3.4655 C   0  0  0  0  0  0  0  0  0  0  0  0
    4.6429    7.7043    2.6951 C   0  0  0  0  0  3  0  0  0  0  0  0
    4.9613    9.0918    3.0443 N   0  0  0  0  0  0  0  0  0  0  0  0
    4.6491    9.9894    1.9432 C   0  0  0  0  0  3  0  0  0  0  0  0
    3.8461   11.1415    2.5117 C   0  0  0  0  0  0  0  0  0  0  0  0
    4.7858   12.2151    3.0169 C   0  0  0  0  0  0  0  0  0  0  0  0
    6.1567   11.6206    3.3016 C   0  0  1  0  0  0  0  0  0  0  0  0
    6.7451   11.1181    2.0161 C   0  0  0  0  0  2  0  0  0  0  0  0
  1  2  1  0
  2  3  1  0
  2  4  1  0
  4  5  1  0
  5  6  1  0
  6  7  1  0
  7  8  1  6
  7  9  1  0
  9 10  1  1
 10 11  1  0
 11 12  1  0
 12 13  1  6
 12 14  1  0
 14 15  1  0
 15 16  1  0
 16 17  1  1
 16 18  1  0
 18 19  1  0
 19 20  1  0
 20 21  1  0
 20 22  1  6
 20 23  1  0
 23 24  1  0
 24 25  1  0
 25 26  1  0
 26 27  1  0
 27 28  1  0
 28 29  1  0
 29 30  1  6
 29  9  1  0
M  CHG  1  17   1
M  RAD  6  14   2  17   2  19   2  24   2  26   2  30   3
M  END
>  <docking_score>  (3) 
-2.5030000000000001

$$$$
