
     RDKit          3D

 62 68  0  0  0  0  0  0  0  0999 V2000
    6.9752    3.0102    6.4780 C   0  0  0  0  0  0  0  0  0  0  0  0
    6.4922    3.4342    7.8234 C   0  0  0  0  0  2  0  0  0  0  0  0
    6.4230    2.3368    8.8317 C   0  0  0  0  0  0  0  0  0  0  0  0
    6.7233    2.9512   10.2012 C   0  0  1  0  0  0  0  0  0  0  0  0
    8.1881    2.8545   10.4525 C   0  0  0  0  0  0  0  0  0  0  0  0
    8.8874    1.9313   10.8210 O   0  0  0  0  0  0  0  0  0  0  0  0
    8.4000    4.2859   10.0790 C   0  0  0  0  0  0  0  0  0  0  0  0
    6.8845    4.4542   10.1031 C   0  0  2  0  0  0  0  0  0  0  0  0
    6.4164    5.0582   11.4216 C   0  0  0  0  0  0  0  0  0  0  0  0
    6.5609    6.5580   11.4184 C   0  0  0  0  0  3  0  0  0  0  0  0
    6.3156    7.0347   12.6910 O   0  0  0  0  0  0  0  0  0  0  0  0
    5.4106    8.1176   12.6416 C   0  0  0  0  0  0  0  0  0  0  0  0
    6.1491    9.2892   12.0567 C   0  0  0  0  0  0  0  0  0  0  0  0
    5.1544   10.3521   11.6217 C   0  0  1  0  0  0  0  0  0  0  0  0
    3.8196   10.2949   12.2964 C   0  0  0  0  0  0  0  0  0  0  0  0
    5.6854   11.7153   11.4878 C   0  0  1  0  0  0  0  0  0  0  0  0
    6.8420   12.2372   12.1601 C   0  0  0  0  0  0  0  0  0  0  0  0
    6.5370   12.9829   13.4099 C   0  0  0  0  0  0  0  0  0  0  0  0
    5.2390   13.7281   13.4339 C   0  0  0  0  0  0  0  0  0  0  0  0
    5.3643   15.0346   13.0100 O   0  0  0  0  0  0  0  0  0  0  0  0
    4.1565   15.7416   13.1184 C   0  0  0  0  0  2  0  0  0  0  0  0
    5.5963   11.6130   10.0158 C   0  0  0  0  0  0  0  0  0  0  0  0
    5.7773   12.1840    8.6540 C   0  0  0  0  0  3  0  0  0  0  0  0
    5.6114   13.6672    8.7356 C   0  0  2  0  0  0  0  0  0  0  0  0
    5.4307   14.0969   10.0478 O   0  0  0  0  0  0  0  0  0  0  0  0
    4.1113   13.8665   10.3705 C   0  0  0  0  0  0  0  0  0  0  0  0
    3.3207   14.2128    9.1306 C   0  0  0  0  0  0  0  0  0  0  0  0
    4.3837   14.1729    8.0441 C   0  0  1  0  0  0  0  0  0  0  0  0
    4.6118   15.5555    7.4897 C   0  0  0  0  0  0  0  0  0  0  0  0
    5.0691   15.4518    6.1812 F   0  0  0  0  0  0  0  0  0  0  0  0
    5.1213   10.4025   10.1325 C   0  0  0  0  0  0  0  0  0  0  0  0
    4.6979    9.4180    9.1875 C   0  0  2  0  0  0  0  0  0  0  0  0
    4.2816    8.2621    9.8434 O   0  0  0  0  0  0  0  0  0  0  0  0
    5.8381    9.0398    8.2634 C   0  0  0  0  0  0  0  0  0  0  0  0
    5.3394    8.5665    6.9889 N   0  0  0  0  0  0  0  0  0  0  0  0
    6.2669    8.8666    5.9321 C   0  0  0  0  0  3  0  0  0  0  0  0
    6.9886    7.6311    5.4402 C   0  0  1  0  0  0  0  0  0  0  0  0
    7.5027    6.9444    6.5133 O   0  0  0  0  0  0  0  0  0  0  0  0
    7.5045    5.5924    6.1716 C   0  0  0  0  0  0  0  0  0  0  0  0
    6.1113    5.4581    5.5495 C   0  0  2  0  0  0  0  0  0  0  0  0
    5.0245    5.5821    6.5644 C   0  0  0  0  0  0  0  0  0  0  0  0
    6.0094    4.3611    4.7278 O   0  0  0  0  0  0  0  0  0  0  0  0
    5.9358    3.1612    5.3898 C   0  0  1  0  0  0  0  0  0  0  0  0
    6.2062    2.0766    4.3881 C   0  0  0  0  0  0  0  0  0  0  0  0
    5.5677    1.0353    4.3783 O   0  0  0  0  0  0  0  0  0  0  0  0
    6.0767    6.7087    4.6821 C   0  0  1  0  0  0  0  0  0  0  0  0
    4.8091    7.1957    4.4954 O   0  0  0  0  0  0  0  0  0  0  0  0
    4.3850    6.8000    3.2108 C   0  0  0  0  0  3  0  0  0  0  0  0
    4.0103    8.0063    2.3909 C   0  0  0  0  0  0  0  0  0  0  0  0
    5.2111    8.6436    1.7430 C   0  0  0  0  0  3  0  0  0  0  0  0
    4.8861   10.1260    1.5695 C   0  0  0  0  0  0  0  0  0  0  0  0
    4.8204   10.7552    2.9437 C   0  0  0  0  0  0  0  0  0  0  0  0
    3.4650   11.3668    3.1459 C   0  0  0  0  0  3  0  0  0  0  0  0
    3.1589   12.4032    2.0849 C   0  0  1  0  0  0  0  0  0  0  0  0
    2.7390   11.9571    0.7438 C   0  0  0  0  0  0  0  0  0  0  0  0
    2.2589   10.8613    0.5600 O   0  0  0  0  0  0  0  0  0  0  0  0
    2.2587   13.4767    2.6534 N   0  0  0  0  0  0  0  0  0  0  0  0
    3.6375   13.7166    2.2983 C   0  0  1  0  0  0  0  0  0  0  0  0
    4.6644   13.9383    3.3738 C   0  0  0  0  0  0  0  0  0  0  0  0
    3.9845   14.1465    4.7121 C   0  0  0  0  0  3  0  0  0  0  0  0
    4.7160   13.2842    5.7258 C   0  0  0  0  0  0  0  0  0  0  0  0
    3.8769   13.2109    6.9801 C   0  0  0  0  0  3  0  0  0  0  0  0
  1  2  1  0
  2  3  1  0
  4  3  1  6
  4  5  1  0
  5  6  2  0
  5  7  1  0
  8  7  1  1
  8  9  1  0
  9 10  1  0
 10 11  1  0
 11 12  1  0
 12 13  1  0
 13 14  1  0
 14 15  1  1
 14 16  1  0
 16 17  1  6
 17 18  1  0
 18 19  1  0
 19 20  1  0
 20 21  1  0
 16 22  1  0
 22 23  1  0
 24 23  1  1
 24 25  1  0
 25 26  1  0
 26 27  1  0
 27 28  1  0
 28 29  1  6
 29 30  1  0
 22 31  2  0
 31 32  1  0
 32 33  1  1
 32 34  1  0
 34 35  1  0
 35 36  1  0
 36 37  1  0
 37 38  1  1
 38 39  1  0
 39 40  1  0
 40 41  1  1
 40 42  1  0
 42 43  1  0
 43 44  1  6
 44 45  2  0
 37 46  1  0
 46 47  1  1
 47 48  1  0
 48 49  1  0
 49 50  1  0
 50 51  1  0
 51 52  1  0
 52 53  1  0
 53 54  1  0
 54 55  1  6
 55 56  2  0
 54 57  1  0
 57 58  1  0
 58 59  1  1
 59 60  1  0
 60 61  1  0
 61 62  1  0
 43  1  1  0
  8  4  1  0
 31 14  1  0
 28 24  1  0
 62 28  1  0
 46 40  1  0
 58 54  1  0
M  RAD  8   2   3  10   2  21   3  23   2  36   2  48   2  50   2  53   2
M  RAD  2  60   2  62   2
M  END
>  <docking_score>  (1) 
103.599

$$$$
