
     RDKit          3D

 76 80  0  0  0  0  0  0  0  0999 V2000
   12.4271   -0.1822   -6.2489 C   0  0  0  0  0  0  0  0  0  0  0  0
   13.6589    0.5426   -5.7528 C   0  0  0  0  0  0  0  0  0  0  0  0
   14.8433    0.2277   -6.6417 C   0  0  0  0  0  0  0  0  0  0  0  0
   13.9910    0.1612   -4.3415 C   0  0  0  0  0  0  0  0  0  0  0  0
   14.2353   -1.3203   -4.2086 C   0  0  0  0  0  0  0  0  0  0  0  0
   14.8918   -1.6552   -2.8813 C   0  0  0  0  0  0  0  0  0  0  0  0
   15.8833   -0.5524   -2.5675 C   0  0  1  0  0  0  0  0  0  0  0  0
   15.5082    0.0420   -1.2143 C   0  0  0  0  0  0  0  0  0  0  0  0
   17.2836   -1.1366   -2.4589 C   0  0  0  0  0  3  0  0  0  0  0  0
   18.0014   -0.5214   -1.2960 C   0  0  0  0  0  0  0  0  0  0  0  0
   18.4581   -1.5785   -0.3159 C   0  0  0  0  0  0  0  0  0  0  0  0
   19.9639   -1.5821   -0.1650 C   0  0  2  0  0  0  0  0  0  0  0  0
   20.5634   -1.4406   -1.5434 C   0  0  0  0  0  0  0  0  0  0  0  0
   20.3619   -2.9482    0.3746 C   0  0  0  0  0  3  0  0  0  0  0  0
   19.7841   -4.0517   -0.5194 C   0  0  0  0  0  0  0  0  0  0  0  0
   18.3922   -3.6440   -0.9129 C   0  0  0  0  0  0  0  0  0  0  0  0
   18.0411   -4.2099   -2.2694 C   0  0  2  0  0  0  0  0  0  0  0  0
   17.4135   -5.5688   -2.0633 C   0  0  0  0  0  3  0  0  0  0  0  0
   15.9571   -5.5995   -2.4686 C   0  0  1  0  0  0  0  0  0  0  0  0
   15.3930   -4.2255   -2.2400 C   0  0  0  0  0  0  0  0  0  0  0  0
   15.8556   -3.6388   -1.0427 O   0  0  0  0  0  0  0  0  0  0  0  0
   15.2776   -4.0790    0.1402 C   0  0  0  0  0  0  0  0  0  0  0  0
   14.9403   -5.2941    0.2935 O   0  0  0  0  0  0  0  0  0  0  0  0
   19.5724   -4.3418   -3.2487 S   0  0  0  0  0  0  0  0  0  0  0  0
   20.0794   -2.6928   -3.7993 C   0  0  0  0  0  0  0  0  0  0  0  0
   19.3003   -2.2698   -5.0423 C   0  0  0  0  0  0  0  0  0  0  0  0
   17.8088   -2.3065   -4.7648 C   0  0  1  0  0  0  0  0  0  0  0  0
   17.3523   -0.9814   -4.1786 C   0  0  0  0  0  0  0  0  0  0  0  0
   17.0936   -2.6516   -6.0363 C   0  0  0  0  0  0  0  0  0  0  0  0
   18.0476   -3.5277   -6.8579 C   0  0  0  0  0  3  0  0  0  0  0  0
   17.9418   -5.1337   -6.3636 S   0  0  0  0  0  0  0  0  0  0  0  0
   16.1338   -5.3958   -6.2480 C   0  0  0  0  0  3  0  0  0  0  0  0
   15.7802   -4.8879   -4.8667 C   0  0  0  0  0  0  0  0  0  0  0  0
   15.8762   -6.0412   -3.9021 C   0  0  2  0  0  0  0  0  0  0  0  0
   14.5896   -7.2740   -4.1781 S   0  0  0  0  0  0  0  0  0  0  0  0
   18.7578   -6.3800   -5.9747 C   0  0  2  0  0  0  0  0  0  0  0  0
   19.9221   -6.9196   -6.7809 C   0  0  0  0  0  2  0  0  0  0  0  0
   18.4410   -7.2811   -4.8156 C   0  0  0  0  0  0  0  0  0  0  0  0
   18.4023   -8.7336   -5.1729 C   0  0  0  0  0  3  0  0  0  0  0  0
   17.1451   -9.4201   -4.6295 C   0  0  0  0  0  3  0  0  0  0  0  0
   16.7550  -10.8382   -5.6044 S   0  0  1  0  0  0  0  0  0  0  0  0
   15.0934  -10.8844   -5.8842 C   0  0  1  0  0  0  0  0  0  0  0  0
   14.2919   -9.7422   -5.3469 C   0  0  1  0  0  0  0  0  0  0  0  0
   13.9989   -9.9883   -3.8623 C   0  0  0  0  0  0  0  0  0  0  0  0
   14.9795   -8.4006   -5.5291 C   0  0  1  0  0  0  0  0  0  0  0  0
   14.6506   -7.7961   -6.8795 C   0  0  0  0  0  0  0  0  0  0  0  0
   15.3641   -8.5176   -7.9990 C   0  0  0  0  0  3  0  0  0  0  0  0
   16.8056   -8.1527   -8.1208 C   0  0  0  0  0  3  0  0  0  0  0  0
   17.6850   -9.2451   -8.6284 C   0  0  0  0  0  0  0  0  0  0  0  0
   18.4179   -9.9755   -7.5276 C   0  0  0  0  0  3  0  0  0  0  0  0
   17.6591  -11.1571   -7.0121 C   0  0  1  0  0  0  0  0  0  0  0  0
   18.5017  -12.4090   -6.9500 C   0  0  0  0  0  3  0  0  0  0  0  0
   17.5286  -13.5873   -7.0662 C   0  0  0  0  0  0  0  0  0  0  0  0
   16.1353  -13.1517   -6.6124 C   0  0  0  0  0  0  0  0  0  0  0  0
   15.5522  -12.3484   -7.7770 C   0  0  0  0  0  3  0  0  0  0  0  0
   14.6750  -11.2285   -7.2727 C   0  0  1  0  0  0  0  0  0  0  0  0
   13.2317  -11.5731   -7.4154 C   0  0  0  0  0  0  0  0  0  0  0  0
   12.4603  -10.9369   -6.2812 C   0  0  0  0  0  0  0  0  0  0  0  0
   11.0499  -11.4286   -6.3082 C   0  0  1  0  0  0  0  0  0  0  0  0
   10.2064  -10.9599   -5.1704 C   0  0  0  0  0  0  0  0  0  0  0  0
    9.7092   -9.5583   -5.2984 C   0  0  0  0  0  3  0  0  0  0  0  0
    8.3943   -9.4591   -4.5353 C   0  0  0  0  0  0  0  0  0  0  0  0
    7.2821   -9.6903   -5.5369 C   0  0  1  0  0  0  0  0  0  0  0  0
    7.5223   -8.8220   -6.6101 O   0  0  0  0  0  0  0  0  0  0  0  0
    6.1199   -8.4847   -7.4980 S   0  0  0  0  0  0  0  0  0  0  0  0
    6.3969   -6.9889   -8.4806 C   0  0  0  0  0  3  0  0  0  0  0  0
    7.8775   -6.6924   -8.5545 C   0  0  0  0  0  0  0  0  0  0  0  0
    8.1483   -5.2191   -8.3094 C   0  0  0  0  0  3  0  0  0  0  0  0
    6.8449   -4.4730   -8.2376 C   0  0  0  0  0  3  0  0  0  0  0  0
    5.6598   -5.3027   -8.6366 C   0  0  0  0  0  3  0  0  0  0  0  0
    4.3176   -5.0612   -7.4627 S   0  0  0  0  0  0  0  0  0  0  0  0
   10.3413  -11.1461   -7.5959 C   0  0  0  0  0  3  0  0  0  0  0  0
    9.0509  -10.4141   -7.4194 C   0  0  0  0  0  3  0  0  0  0  0  0
    7.8522  -11.3325   -7.3369 C   0  0  0  0  0  3  0  0  0  0  0  0
    7.2082  -11.1315   -5.9827 C   0  0  2  0  0  0  0  0  0  0  0  0
    5.5205  -11.7799   -5.9234 S   0  0  0  0  0  0  0  0  0  0  0  0
  1  2  1  0
  2  3  1  0
  2  4  1  0
  4  5  1  0
  5  6  1  0
  6  7  1  0
  7  8  1  1
  7  9  1  0
  9 10  1  0
 10 11  1  0
 11 12  1  0
 12 13  1  6
 12 14  1  0
 14 15  1  0
 15 16  1  0
 17 16  1  1
 17 18  1  0
 18 19  1  0
 19 20  1  6
 20 21  1  0
 21 22  1  0
 22 23  2  0
 17 24  1  0
 24 25  1  0
 25 26  1  0
 26 27  1  0
 27 28  1  6
 27 29  1  0
 29 30  1  0
 30 31  1  0
 31 32  1  0
 32 33  1  0
 33 34  1  0
 34 35  1  1
 31 36  1  0
 36 37  1  6
 36 38  1  0
 38 39  1  0
 39 40  1  0
 41 40  1  6
 41 42  1  0
 42 43  1  0
 43 44  1  1
 43 45  1  0
 45 46  1  6
 46 47  1  0
 47 48  1  0
 48 49  1  0
 49 50  1  0
 51 50  1  1
 51 52  1  0
 52 53  1  0
 53 54  1  0
 54 55  1  0
 55 56  1  0
 56 57  1  1
 57 58  1  0
 59 58  1  6
 59 60  1  0
 60 61  1  0
 61 62  1  0
 62 63  1  0
 63 64  1  6
 64 65  1  0
 65 66  1  0
 66 67  1  0
 67 68  1  0
 68 69  1  0
 69 70  1  0
 70 71  1  0
 59 72  1  0
 72 73  1  0
 73 74  1  0
 74 75  1  0
 75 76  1  6
 34 19  1  0
 45 35  1  0
 51 41  1  0
 42 56  1  6
 75 63  1  0
M  RAD  8   9   2  14   2  18   2  30   2  32   2  37   3  39   2  40   2
M  RAD  8  47   2  48   2  50   2  52   2  55   2  61   2  66   2  68   2
M  RAD  5  69   2  70   2  72   2  73   2  74   2
M  END
>  <docking_score>  (1) 
84.138000000000005

$$$$
