
     RDKit          3D

 25 26  0  0  0  0  0  0  0  0999 V2000
   16.7828   -4.6728   -7.0627 C   0  0  0  0  0  0  0  0  0  0  0  0
   17.3814   -5.7756   -6.2889 C   0  0  1  0  0  0  0  0  0  0  0  0
   18.0029   -5.3490   -4.9585 C   0  0  2  0  0  0  0  0  0  0  0  0
   18.2506   -6.6778   -4.2257 C   0  0  2  0  0  0  0  0  0  0  0  0
   19.2304   -6.5999   -3.2767 O   0  0  0  0  0  0  0  0  0  0  0  0
   18.5628   -7.7891   -5.2004 C   0  0  2  0  0  0  0  0  0  0  0  0
   19.5284   -7.3393   -6.0865 O   0  0  0  0  0  0  0  0  0  0  0  0
   17.3347   -8.1585   -6.0431 C   0  0  1  0  0  0  0  0  0  0  0  0
   16.6469   -9.2227   -5.5184 O   0  0  0  0  0  0  0  0  0  0  0  0
   16.4345   -6.9097   -5.9586 C   0  0  1  0  0  0  0  0  0  0  0  0
   15.9300   -6.8978   -4.6271 N   0  0  0  0  0  0  0  0  0  0  0  0
   15.8048   -5.6543   -3.9716 C   0  0  0  0  0  3  0  0  0  0  0  0
   16.8856   -4.6674   -4.1968 C   0  0  2  0  0  0  0  0  0  0  0  0
   16.3350   -3.5319   -5.0290 C   0  0  0  0  0  0  0  0  0  0  0  0
   14.9789   -3.4064   -4.9494 O   0  0  0  0  0  0  0  0  0  0  0  0
   14.5197   -2.1017   -5.0356 C   0  0  0  0  0  3  0  0  0  0  0  0
   15.4530   -1.1775   -4.5868 O   0  0  0  0  0  0  0  0  0  0  0  0
   17.4616   -4.0446   -2.9442 C   0  0  2  0  0  0  0  0  0  0  0  0
   16.4241   -3.5986   -2.1021 O   0  0  0  0  0  0  0  0  0  0  0  0
   18.2595   -2.8222   -3.4229 C   0  0  2  0  0  0  0  0  0  0  0  0
   19.5542   -3.2589   -3.6754 O   0  0  0  0  0  0  0  0  0  0  0  0
   18.2264   -1.7261   -2.3838 C   0  0  0  0  0  3  0  0  0  0  0  0
   19.4883   -1.8628   -1.5578 C   0  0  0  0  0  0  0  0  0  0  0  0
   20.1497   -0.5048   -1.4771 C   0  0  0  0  0  3  0  0  0  0  0  0
   20.4825   -0.1179   -2.7839 O   0  0  0  0  0  0  0  0  0  0  0  0
  2  1  1  1
  2  3  1  0
  3  4  1  1
  4  5  1  1
  4  6  1  0
  6  7  1  6
  6  8  1  0
  8  9  1  1
  8 10  1  0
 10 11  1  1
 11 12  1  0
 12 13  1  0
 13 14  1  6
 14 15  1  0
 15 16  1  0
 16 17  1  0
 13 18  1  0
 18 19  1  1
 18 20  1  0
 20 21  1  1
 20 22  1  0
 22 23  1  0
 23 24  1  0
 24 25  1  0
 10  2  1  0
 13  3  1  0
M  RAD  4  12   2  16   2  22   2  24   2
M  END
>  <docking_score>  (1) 
-4.3289999999999997

$$$$

     RDKit          3D

 25 26  0  0  0  0  0  0  0  0999 V2000
   17.8810   -5.4144   -2.6520 C   0  0  0  0  0  0  0  0  0  0  0  0
   17.3381   -6.0599   -3.8611 C   0  0  1  0  0  0  0  0  0  0  0  0
   16.5088   -5.1349   -4.7526 C   0  0  2  0  0  0  0  0  0  0  0  0
   16.3453   -5.9317   -6.0574 C   0  0  2  0  0  0  0  0  0  0  0  0
   15.2546   -5.5559   -6.7897 O   0  0  0  0  0  0  0  0  0  0  0  0
   16.2995   -7.4175   -5.7880 C   0  0  2  0  0  0  0  0  0  0  0  0
   15.4004   -7.6512   -4.7600 O   0  0  0  0  0  0  0  0  0  0  0  0
   17.6588   -7.9431   -5.3072 C   0  0  1  0  0  0  0  0  0  0  0  0
   18.4076   -8.4595   -6.3337 O   0  0  0  0  0  0  0  0  0  0  0  0
   18.3746   -6.6887   -4.7677 C   0  0  1  0  0  0  0  0  0  0  0  0
   18.7064   -5.9193   -5.9191 N   0  0  0  0  0  0  0  0  0  0  0  0
   18.5902   -4.5151   -5.8400 C   0  0  0  0  0  3  0  0  0  0  0  0
   17.4279   -3.9808   -5.0941 C   0  0  2  0  0  0  0  0  0  0  0  0
   17.9265   -3.3454   -3.8163 C   0  0  0  0  0  0  0  0  0  0  0  0
   19.1691   -2.7942   -3.9313 O   0  0  0  0  0  0  0  0  0  0  0  0
   19.4840   -1.8820   -2.9367 C   0  0  0  0  0  3  0  0  0  0  0  0
   20.3926   -0.9226   -3.3617 O   0  0  0  0  0  0  0  0  0  0  0  0
   16.6278   -2.9214   -5.8193 C   0  0  2  0  0  0  0  0  0  0  0  0
   17.4912   -1.9619   -6.3838 O   0  0  0  0  0  0  0  0  0  0  0  0
   15.7789   -2.2358   -4.7379 C   0  0  2  0  0  0  0  0  0  0  0  0
   14.5399   -2.8646   -4.7384 O   0  0  0  0  0  0  0  0  0  0  0  0
   15.6604   -0.7554   -5.0147 C   0  0  0  0  0  3  0  0  0  0  0  0
   14.3554   -0.5479   -5.7545 C   0  0  0  0  0  0  0  0  0  0  0  0
   13.3762    0.1124   -4.8094 C   0  0  0  0  0  3  0  0  0  0  0  0
   14.1125    0.6405   -3.7383 O   0  0  0  0  0  0  0  0  0  0  0  0
  2  1  1  1
  2  3  1  0
  3  4  1  6
  4  5  1  1
  4  6  1  0
  6  7  1  1
  6  8  1  0
  8  9  1  6
  8 10  1  0
 10 11  1  6
 11 12  1  0
 12 13  1  0
 13 14  1  1
 14 15  1  0
 15 16  1  0
 16 17  1  0
 13 18  1  0
 18 19  1  1
 18 20  1  0
 20 21  1  6
 20 22  1  0
 22 23  1  0
 23 24  1  0
 24 25  1  0
 10  2  1  0
 13  3  1  0
M  RAD  4  12   2  16   2  22   2  24   2
M  END
>  <docking_score>  (2) 
-3.8639999999999999

$$$$

     RDKit          3D

 25 26  0  0  0  0  0  0  0  0999 V2000
   15.3928   -2.3368   -8.4813 C   0  0  0  0  0  0  0  0  0  0  0  0
   16.3857   -3.2992   -7.9700 C   0  0  1  0  0  0  0  0  0  0  0  0
   17.1569   -2.8178   -6.7405 C   0  0  2  0  0  0  0  0  0  0  0  0
   17.8617   -4.0852   -6.2294 C   0  0  2  0  0  0  0  0  0  0  0  0
   18.9740   -3.8230   -5.4804 O   0  0  0  0  0  0  0  0  0  0  0  0
   18.2133   -5.0120   -7.3694 C   0  0  2  0  0  0  0  0  0  0  0  0
   18.8340   -4.2722   -8.3631 O   0  0  0  0  0  0  0  0  0  0  0  0
   16.9571   -5.6258   -8.0020 C   0  0  1  0  0  0  0  0  0  0  0  0
   16.6682   -6.8630   -7.4856 O   0  0  0  0  0  0  0  0  0  0  0  0
   15.8264   -4.6570   -7.6023 C   0  0  1  0  0  0  0  0  0  0  0  0
   15.6283   -4.8635   -6.2074 N   0  0  0  0  0  0  0  0  0  0  0  0
   15.3549   -3.7400   -5.3983 C   0  0  0  0  0  3  0  0  0  0  0  0
   16.0983   -2.4969   -5.7062 C   0  0  2  0  0  0  0  0  0  0  0  0
   15.1309   -1.4867   -6.2796 C   0  0  0  0  0  0  0  0  0  0  0  0
   15.1972   -0.2655   -5.6752 O   0  0  0  0  0  0  0  0  0  0  0  0
   13.9652    0.2757   -5.3438 C   0  0  0  0  0  3  0  0  0  0  0  0
   13.1580   -0.6190   -4.6550 O   0  0  0  0  0  0  0  0  0  0  0  0
   16.7635   -1.8327   -4.5209 C   0  0  2  0  0  0  0  0  0  0  0  0
   18.1568   -2.0349   -4.5693 O   0  0  0  0  0  0  0  0  0  0  0  0
   16.2099   -2.5534   -3.2822 C   0  0  2  0  0  0  0  0  0  0  0  0
   15.5600   -1.5950   -2.5144 O   0  0  0  0  0  0  0  0  0  0  0  0
   17.3246   -3.2280   -2.5176 C   0  0  0  0  0  3  0  0  0  0  0  0
   16.8983   -4.6633   -2.2906 C   0  0  0  0  0  0  0  0  0  0  0  0
   18.0611   -5.5634   -2.6455 C   0  0  0  0  0  3  0  0  0  0  0  0
   19.2417   -4.8518   -2.3853 O   0  0  0  0  0  0  0  0  0  0  0  0
  2  1  1  1
  2  3  1  0
  3  4  1  1
  4  5  1  6
  4  6  1  0
  6  7  1  6
  6  8  1  0
  8  9  1  1
  8 10  1  0
 10 11  1  1
 11 12  1  0
 12 13  1  0
 13 14  1  6
 14 15  1  0
 15 16  1  0
 16 17  1  0
 13 18  1  0
 18 19  1  6
 18 20  1  0
 20 21  1  1
 20 22  1  0
 22 23  1  0
 23 24  1  0
 24 25  1  0
 10  2  1  0
 13  3  1  0
M  RAD  4  12   2  16   2  22   2  24   2
M  END
>  <docking_score>  (3) 
-3.7890000000000001

$$$$
