
     RDKit          3D

 23 24  0  0  0  0  0  0  0  0999 V2000
   18.4573   -7.2122   -6.6357 C   0  0  0  0  0  0  0  0  0  0  0  0
   17.7897   -5.8792   -6.4736 C   0  0  1  0  0  0  0  0  0  0  0  0
   16.8801   -5.6026   -7.5994 C   0  0  0  0  0  0  0  0  0  0  0  0
   15.4403   -5.8431   -7.2810 C   0  0  2  0  0  0  0  0  0  0  0  0
   14.5952   -5.5931   -8.3174 O   0  0  0  0  0  0  0  0  0  0  0  0
   15.1164   -5.0071   -6.0339 C   0  0  2  0  0  0  0  0  0  0  0  0
   15.8668   -3.8243   -6.1862 O   0  0  0  0  0  0  0  0  0  0  0  0
   15.8230   -5.7810   -4.9114 C   0  0  1  0  0  0  0  0  0  0  0  0
   15.5018   -7.1496   -5.0278 O   0  0  0  0  0  0  0  0  0  0  0  0
   17.2883   -5.6005   -5.1165 C   0  0  1  0  0  0  0  0  0  0  0  0
   17.9903   -6.3542   -4.0984 N   0  0  0  0  0  0  0  0  0  0  0  0
   17.7027   -5.7684   -2.7922 C   0  0  0  0  0  3  0  0  0  0  0  0
   17.7883   -4.2648   -2.8914 C   0  0  0  0  0  0  0  0  0  0  0  0
   16.5346   -3.6291   -2.3413 C   0  0  1  0  0  0  0  0  0  0  0  0
   16.5431   -3.7168   -0.9493 O   0  0  0  0  0  0  0  0  0  0  0  0
   16.5025   -2.1718   -2.7290 C   0  0  1  0  0  0  0  0  0  0  0  0
   17.7335   -1.7780   -3.2326 O   0  0  0  0  0  0  0  0  0  0  0  0
   15.3879   -1.8645   -3.7143 C   0  0  1  0  0  0  0  0  0  0  0  0
   14.6586   -0.7473   -3.3401 O   0  0  0  0  0  0  0  0  0  0  0  0
   15.8745   -1.7521   -5.1184 C   0  0  2  0  0  0  0  0  0  0  0  0
   15.9512   -0.4731   -5.6069 O   0  0  0  0  0  0  0  0  0  0  0  0
   15.1064   -2.6906   -6.0586 C   0  0  1  0  0  0  0  0  0  0  0  0
   15.0028   -2.0304   -7.3004 O   0  0  0  0  0  0  0  0  0  0  0  0
  2  1  1  1
  2  3  1  0
  3  4  1  0
  4  5  1  6
  4  6  1  0
  6  7  1  6
  6  8  1  0
  8  9  1  6
  8 10  1  0
 10 11  1  1
 11 12  1  0
 12 13  1  0
 13 14  1  0
 14 15  1  1
 14 16  1  0
 16 17  1  6
 16 18  1  0
 18 19  1  1
 18 20  1  0
 20 21  1  6
 20 22  1  0
 22 23  1  6
 10  2  1  0
 22  7  1  0
M  RAD  1  12   2
M  END
>  <docking_score>  (1) 
-6.2160000000000002

$$$$

     RDKit          3D

 23 24  0  0  0  0  0  0  0  0999 V2000
   18.7948   -0.7189   -4.7936 C   0  0  0  0  0  0  0  0  0  0  0  0
   18.4857   -2.1840   -4.7109 C   0  0  1  0  0  0  0  0  0  0  0  0
   19.3516   -2.8526   -3.7238 C   0  0  0  0  0  0  0  0  0  0  0  0
   18.6811   -3.1096   -2.4136 C   0  0  2  0  0  0  0  0  0  0  0  0
   19.4763   -3.7235   -1.4961 O   0  0  0  0  0  0  0  0  0  0  0  0
   17.4018   -3.9031   -2.7183 C   0  0  2  0  0  0  0  0  0  0  0  0
   17.7496   -4.7541   -3.7860 O   0  0  0  0  0  0  0  0  0  0  0  0
   16.4829   -2.8425   -3.3422 C   0  0  1  0  0  0  0  0  0  0  0  0
   16.5006   -1.6887   -2.5309 O   0  0  0  0  0  0  0  0  0  0  0  0
   17.0494   -2.5115   -4.6805 C   0  0  1  0  0  0  0  0  0  0  0  0
   16.2308   -1.4798   -5.2827 N   0  0  0  0  0  0  0  0  0  0  0  0
   14.9006   -2.0224   -5.5439 C   0  0  0  0  0  3  0  0  0  0  0  0
   15.0344   -3.4024   -6.1404 C   0  0  0  0  0  0  0  0  0  0  0  0
   14.1956   -4.3924   -5.3691 C   0  0  1  0  0  0  0  0  0  0  0  0
   12.8490   -4.1958   -5.6746 O   0  0  0  0  0  0  0  0  0  0  0  0
   14.5789   -5.7938   -5.7743 C   0  0  1  0  0  0  0  0  0  0  0  0
   15.3782   -5.7681   -6.9076 O   0  0  0  0  0  0  0  0  0  0  0  0
   15.2580   -6.5518   -4.6465 C   0  0  1  0  0  0  0  0  0  0  0  0
   14.7257   -7.8204   -4.4805 O   0  0  0  0  0  0  0  0  0  0  0  0
   16.7402   -6.5981   -4.7937 C   0  0  2  0  0  0  0  0  0  0  0  0
   17.2463   -7.8031   -5.2088 O   0  0  0  0  0  0  0  0  0  0  0  0
   17.4485   -6.0688   -3.5395 C   0  0  1  0  0  0  0  0  0  0  0  0
   18.6322   -6.8206   -3.3904 O   0  0  0  0  0  0  0  0  0  0  0  0
  2  1  1  1
  2  3  1  0
  3  4  1  0
  4  5  1  1
  4  6  1  0
  6  7  1  6
  6  8  1  0
  8  9  1  1
  8 10  1  0
 10 11  1  1
 11 12  1  0
 12 13  1  0
 13 14  1  0
 14 15  1  6
 14 16  1  0
 16 17  1  6
 16 18  1  0
 18 19  1  6
 18 20  1  0
 20 21  1  1
 20 22  1  0
 22 23  1  6
 10  2  1  0
 22  7  1  0
M  RAD  1  12   2
M  END
>  <docking_score>  (2) 
-5.9550000000000001

$$$$

     RDKit          3D

 23 24  0  0  0  0  0  0  0  0999 V2000
   19.6034   -3.6937   -1.7450 C   0  0  0  0  0  0  0  0  0  0  0  0
   19.0704   -3.9846   -3.1162 C   0  0  1  0  0  0  0  0  0  0  0  0
   19.4797   -5.3255   -3.5696 C   0  0  0  0  0  0  0  0  0  0  0  0
   18.4067   -6.3569   -3.4386 C   0  0  2  0  0  0  0  0  0  0  0  0
   18.7792   -7.5984   -3.8521 O   0  0  0  0  0  0  0  0  0  0  0  0
   17.1816   -5.8207   -4.1940 C   0  0  2  0  0  0  0  0  0  0  0  0
   17.7123   -5.1443   -5.3102 O   0  0  0  0  0  0  0  0  0  0  0  0
   16.6684   -4.7095   -3.2665 C   0  0  1  0  0  0  0  0  0  0  0  0
   16.6051   -5.2078   -1.9484 O   0  0  0  0  0  0  0  0  0  0  0  0
   17.6633   -3.6013   -3.3261 C   0  0  1  0  0  0  0  0  0  0  0  0
   17.2332   -2.5499   -2.4278 N   0  0  0  0  0  0  0  0  0  0  0  0
   15.9840   -1.9819   -2.9266 C   0  0  0  0  0  3  0  0  0  0  0  0
   16.0897   -1.7805   -4.4187 C   0  0  0  0  0  0  0  0  0  0  0  0
   14.9166   -2.4210   -5.1203 C   0  0  1  0  0  0  0  0  0  0  0  0
   13.7752   -1.6460   -4.9161 O   0  0  0  0  0  0  0  0  0  0  0  0
   15.1944   -2.4834   -6.6016 C   0  0  1  0  0  0  0  0  0  0  0  0
   16.2994   -1.7077   -6.9196 O   0  0  0  0  0  0  0  0  0  0  0  0
   15.3714   -3.9100   -7.0926 C   0  0  1  0  0  0  0  0  0  0  0  0
   14.6321   -4.1595   -8.2378 O   0  0  0  0  0  0  0  0  0  0  0  0
   16.8024   -4.2830   -7.2762 C   0  0  2  0  0  0  0  0  0  0  0  0
   17.2278   -4.3349   -8.5788 O   0  0  0  0  0  0  0  0  0  0  0  0
   17.1585   -5.5552   -6.4952 C   0  0  1  0  0  0  0  0  0  0  0  0
   18.1131   -6.2530   -7.2637 O   0  0  0  0  0  0  0  0  0  0  0  0
  2  1  1  1
  2  3  1  0
  3  4  1  0
  4  5  1  6
  4  6  1  0
  6  7  1  6
  6  8  1  0
  8  9  1  1
  8 10  1  0
 10 11  1  1
 11 12  1  0
 12 13  1  0
 13 14  1  0
 14 15  1  6
 14 16  1  0
 16 17  1  1
 16 18  1  0
 18 19  1  6
 18 20  1  0
 20 21  1  6
 20 22  1  0
 22 23  1  6
 10  2  1  0
 22  7  1  0
M  RAD  1  12   2
M  END
>  <docking_score>  (3) 
-5.8289999999999997

$$$$
