
     RDKit          3D

 27 27  0  0  0  0  0  0  0  0999 V2000
   13.2079   -0.2304   -4.7809 C   0  0  0  0  0  0  0  0  0  0  0  0
   14.2379   -0.6659   -5.6305 O   0  0  0  0  0  0  0  0  0  0  0  0
   15.5591   -0.3449   -5.5200 C   0  0  0  0  0  0  0  0  0  0  0  0
   16.4631   -1.3054   -5.5635 C   0  0  0  0  0  0  0  0  0  0  0  0
   16.0654   -2.6998   -5.7276 C   0  0  0  0  0  0  0  0  0  0  0  0
   15.7568   -3.4672   -4.6975 C   0  0  0  0  0  0  0  0  0  0  0  0
   15.3622   -4.8699   -4.9307 C   0  0  0  0  0  0  0  0  0  0  0  0
   15.8375   -5.4926   -6.1847 C   0  0  0  0  0  0  0  0  0  0  0  0
   16.9185   -6.4413   -5.9170 C   0  0  0  0  0  0  0  0  0  0  0  0
   17.8078   -6.3519   -4.8241 C   0  0  0  0  0  0  0  0  0  0  0  0
   18.8071   -5.5461   -4.6601 C   0  0  0  0  0  0  0  0  0  0  0  0
   19.6016   -5.6424   -3.4129 C   0  0  0  0  0  0  0  0  0  0  0  0
   20.6413   -4.8972   -3.1371 C   0  0  0  0  0  0  0  0  0  0  0  0
   21.3652   -5.0232   -1.9414 O   0  0  0  0  0  0  0  0  0  0  0  0
   21.0476   -3.9051   -4.1204 C   0  0  0  0  0  0  0  0  0  0  0  0
   20.3924   -3.7694   -5.2366 C   0  0  0  0  0  0  0  0  0  0  0  0
   19.2169   -4.5417   -5.6578 C   0  0  0  0  0  0  0  0  0  0  0  0
   17.0406   -7.4502   -6.7982 C   0  0  0  0  0  0  0  0  0  0  0  0
   18.1064   -8.4778   -6.6277 C   0  0  0  0  0  0  0  0  0  0  0  0
   17.6966   -9.4034   -5.5224 C   0  0  0  0  0  0  0  0  0  0  0  0
   16.7614  -10.4827   -6.0340 C   0  0  0  0  0  0  0  0  0  0  0  0
   15.7562   -2.9896   -3.3064 C   0  0  0  0  0  0  0  0  0  0  0  0
   16.7318   -3.4867   -2.3952 C   0  0  0  0  0  0  0  0  0  0  0  0
   17.8013   -2.8860   -2.0049 C   0  0  0  0  0  0  0  0  0  0  0  0
   18.2931   -1.5911   -2.3648 C   0  0  0  0  0  0  0  0  0  0  0  0
   19.4272   -1.0694   -1.9999 C   0  0  0  0  0  0  0  0  0  0  0  0
   20.3981   -1.7795   -1.1268 C   0  0  0  0  0  2  0  0  0  0  0  0
  1  2  1  0
  2  3  1  0
  3  4  2  3
  4  5  1  0
  5  6  2  3
  6  7  1  0
  7  8  1  0
  8  9  1  0
  9 10  1  0
 10 11  2  3
 11 12  1  0
 12 13  2  0
 13 14  1  0
 13 15  1  0
 15 16  2  0
 16 17  1  0
  9 18  2  3
 18 19  1  0
 19 20  1  0
 20 21  1  0
  6 22  1  0
 22 23  1  0
 23 24  2  3
 24 25  1  0
 25 26  2  3
 26 27  1  0
 17 11  1  0
M  RAD  1  27   3
M  END
>  <docking_score>  (1) 
-4.407

$$$$

     RDKit          3D

 27 27  0  0  0  0  0  0  0  0999 V2000
   19.2450   -9.1635   -7.9235 C   0  0  0  0  0  0  0  0  0  0  0  0
   17.9364   -9.5068   -7.5465 O   0  0  0  0  0  0  0  0  0  0  0  0
   17.4963   -9.7129   -6.2719 C   0  0  0  0  0  0  0  0  0  0  0  0
   17.0627   -8.6867   -5.5643 C   0  0  0  0  0  0  0  0  0  0  0  0
   17.0496   -7.3412   -6.1289 C   0  0  0  0  0  0  0  0  0  0  0  0
   17.6032   -6.3147   -5.5085 C   0  0  0  0  0  0  0  0  0  0  0  0
   17.5560   -4.9784   -6.1330 C   0  0  0  0  0  0  0  0  0  0  0  0
   18.8528   -4.3772   -6.5110 C   0  0  0  0  0  0  0  0  0  0  0  0
   18.7739   -2.9165   -6.4923 C   0  0  0  0  0  0  0  0  0  0  0  0
   17.5798   -2.1787   -6.6439 C   0  0  0  0  0  0  0  0  0  0  0  0
   16.7000   -1.8729   -5.7454 C   0  0  0  0  0  0  0  0  0  0  0  0
   15.5159   -1.0789   -6.1500 C   0  0  0  0  0  0  0  0  0  0  0  0
   14.5519   -0.7210   -5.3408 C   0  0  0  0  0  0  0  0  0  0  0  0
   13.4474    0.0323   -5.7681 O   0  0  0  0  0  0  0  0  0  0  0  0
   14.6461   -1.1289   -3.9476 C   0  0  0  0  0  0  0  0  0  0  0  0
   15.6603   -1.8277   -3.5274 C   0  0  0  0  0  0  0  0  0  0  0  0
   16.7975   -2.2874   -4.3344 C   0  0  0  0  0  0  0  0  0  0  0  0
   19.9416   -2.2715   -6.3199 C   0  0  0  0  0  0  0  0  0  0  0  0
   19.9843   -0.7822   -6.2839 C   0  0  0  0  0  0  0  0  0  0  0  0
   20.0251   -0.3459   -4.8506 C   0  0  0  0  0  0  0  0  0  0  0  0
   21.3824   -0.6266   -4.2341 C   0  0  0  0  0  0  0  0  0  0  0  0
   18.3023   -6.4315   -4.2197 C   0  0  0  0  0  0  0  0  0  0  0  0
   17.8317   -5.6897   -3.0983 C   0  0  0  0  0  0  0  0  0  0  0  0
   18.4012   -4.6737   -2.5500 C   0  0  0  0  0  0  0  0  0  0  0  0
   19.6269   -4.0251   -2.9033 C   0  0  0  0  0  0  0  0  0  0  0  0
   20.4492   -3.4353   -2.0863 C   0  0  0  0  0  0  0  0  0  0  0  0
   20.2125   -3.3557   -0.6211 C   0  0  0  0  0  2  0  0  0  0  0  0
  1  2  1  0
  2  3  1  0
  3  4  2  3
  4  5  1  0
  5  6  2  3
  6  7  1  0
  7  8  1  0
  8  9  1  0
  9 10  1  0
 10 11  2  3
 11 12  1  0
 12 13  2  0
 13 14  1  0
 13 15  1  0
 15 16  2  0
 16 17  1  0
  9 18  2  3
 18 19  1  0
 19 20  1  0
 20 21  1  0
  6 22  1  0
 22 23  1  0
 23 24  2  3
 24 25  1  0
 25 26  2  3
 26 27  1  0
 17 11  1  0
M  RAD  1  27   3
M  END
>  <docking_score>  (2) 
-3.8900000000000001

$$$$

     RDKit          3D

 27 27  0  0  0  0  0  0  0  0999 V2000
   18.0730   -2.6018   -8.5268 C   0  0  0  0  0  0  0  0  0  0  0  0
   19.3046   -3.2233   -8.2635 O   0  0  0  0  0  0  0  0  0  0  0  0
   19.6205   -4.5234   -8.5292 C   0  0  0  0  0  0  0  0  0  0  0  0
   19.9681   -5.3197   -7.5358 C   0  0  0  0  0  0  0  0  0  0  0  0
   20.0176   -4.8257   -6.1636 C   0  0  0  0  0  0  0  0  0  0  0  0
   20.0426   -5.6414   -5.1248 C   0  0  0  0  0  0  0  0  0  0  0  0
   20.0925   -5.0783   -3.7616 C   0  0  0  0  0  0  0  0  0  0  0  0
   18.7943   -4.7851   -3.1176 C   0  0  0  0  0  0  0  0  0  0  0  0
   18.1640   -3.6141   -3.7274 C   0  0  0  0  0  0  0  0  0  0  0  0
   18.8500   -2.4336   -4.0866 C   0  0  0  0  0  0  0  0  0  0  0  0
   19.4723   -1.5965   -3.3204 C   0  0  0  0  0  0  0  0  0  0  0  0
   20.1255   -0.4177   -3.9368 C   0  0  0  0  0  0  0  0  0  0  0  0
   20.7698    0.5056   -3.2699 C   0  0  0  0  0  0  0  0  0  0  0  0
   21.3742    1.6067   -3.8961 O   0  0  0  0  0  0  0  0  0  0  0  0
   20.8525    0.3682   -1.8241 C   0  0  0  0  0  0  0  0  0  0  0  0
   20.3002   -0.6439   -1.2206 C   0  0  0  0  0  0  0  0  0  0  0  0
   19.5547   -1.7378   -1.8557 C   0  0  0  0  0  0  0  0  0  0  0  0
   16.8393   -3.7092   -3.9402 C   0  0  0  0  0  0  0  0  0  0  0  0
   16.0896   -2.5781   -4.5561 C   0  0  0  0  0  0  0  0  0  0  0  0
   15.3415   -1.8623   -3.4724 C   0  0  0  0  0  0  0  0  0  0  0  0
   14.5320   -0.7109   -4.0381 C   0  0  0  0  0  0  0  0  0  0  0  0
   20.0518   -7.1069   -5.2489 C   0  0  0  0  0  0  0  0  0  0  0  0
   18.9798   -7.8633   -4.6939 C   0  0  0  0  0  0  0  0  0  0  0  0
   17.7599   -7.8904   -5.1041 C   0  0  0  0  0  0  0  0  0  0  0  0
   17.1589   -7.1913   -6.1988 C   0  0  0  0  0  0  0  0  0  0  0  0
   16.0063   -6.5889   -6.1877 C   0  0  0  0  0  0  0  0  0  0  0  0
   15.1293   -6.5469   -4.9884 C   0  0  0  0  0  2  0  0  0  0  0  0
  1  2  1  0
  2  3  1  0
  3  4  2  3
  4  5  1  0
  5  6  2  3
  6  7  1  0
  7  8  1  0
  8  9  1  0
  9 10  1  0
 10 11  2  3
 11 12  1  0
 12 13  2  0
 13 14  1  0
 13 15  1  0
 15 16  2  0
 16 17  1  0
  9 18  2  3
 18 19  1  0
 19 20  1  0
 20 21  1  0
  6 22  1  0
 22 23  1  0
 23 24  2  3
 24 25  1  0
 25 26  2  3
 26 27  1  0
 17 11  1  0
M  RAD  1  27   3
M  END
>  <docking_score>  (3) 
-3.391

$$$$
