
     RDKit          3D

 34 40  0  0  0  0  0  0  0  0999 V2000
   11.8870    5.5226   20.7504 C   0  0  0  0  0  0  0  0  0  0  0  0
   13.3840    5.6066   20.7934 N   0  0  0  0  0  0  0  0  0  0  0  0
   14.4733    4.8048   21.4421 C   0  0  0  0  0  3  0  0  0  0  0  0
   14.5165    3.5869   22.3166 C   0  0  0  0  0  0  0  0  0  0  0  0
   13.4886    2.6662   22.9045 C   0  0  0  0  0  3  0  0  0  0  0  0
   11.9916    2.5821   22.8615 O   0  0  0  0  0  0  0  0  0  0  0  0
   10.9024    3.3839   22.2128 C   0  0  0  0  0  0  0  0  0  0  0  0
    9.4452    3.6179   21.9450 C   0  0  0  0  0  0  0  0  0  0  0  0
   10.8592    4.6018   21.3384 C   0  0  0  0  0  0  0  0  0  0  0  0
    9.4595    4.9903   20.9640 O   0  0  0  0  0  0  0  0  0  0  0  0
    9.1595    5.4653   19.5732 C   0  0  0  0  0  0  0  0  0  0  0  0
   10.1914    2.2871   22.9486 N   0  0  0  0  0  0  0  0  0  0  0  0
    8.7394    2.0227   22.6804 C   0  0  0  0  0  0  0  0  0  0  0  0
    8.0284    0.9259   23.4162 C   0  0  0  0  0  0  0  0  0  0  0  0
    8.5432   -0.4617   23.1720 C   0  0  0  0  0  0  0  0  0  0  0  0
    8.0533   -1.7562   23.7502 C   0  0  0  0  0  0  0  0  0  0  0  0
    9.1234   -2.4399   22.9516 C   0  0  0  0  0  0  0  0  0  0  0  0
    9.7290   -3.7726   22.6247 C   0  0  0  0  0  0  0  0  0  0  0  0
    6.8967    1.3616   24.2989 C   0  0  0  0  0  0  0  0  0  0  0  0
    6.0002    0.5175   25.1554 C   0  0  0  0  0  0  0  0  0  0  0  0
    6.0140   -0.9710   25.3409 C   0  0  0  0  0  0  0  0  0  0  0  0
    6.9277   -1.9829   24.7155 C   0  0  0  0  0  0  0  0  0  0  0  0
    6.1764   -3.0332   25.4786 C   0  0  0  0  0  0  0  0  0  0  0  0
    6.0865   -4.5061   25.7482 C   0  0  0  0  0  0  0  0  0  0  0  0
    6.6921   -5.8388   25.4213 C   0  0  0  0  0  0  0  0  0  0  0  0
    7.7621   -6.5225   24.6226 C   0  0  0  0  0  0  0  0  0  0  0  0
    7.4910   -5.0475   24.6528 C   0  0  0  0  0  0  0  0  0  0  0  0
    8.4778   -4.3761   23.7441 C   0  0  0  0  0  0  0  0  0  0  0  0
    9.3587   -5.4362   23.1524 C   0  0  0  0  0  0  0  0  0  0  0  0
    8.9164   -6.7627   23.6954 C   0  0  0  0  0  0  0  0  0  0  0  0
    9.9343   -7.5812   22.9579 C   0  0  0  0  0  0  0  0  0  0  0  0
    8.9475   -8.2525   23.8666 C   0  0  0  0  0  0  0  0  0  0  0  0
    9.5532   -9.5854   23.5396 C   0  0  0  0  0  0  0  0  0  0  0  0
   10.5400   -8.9140   22.6309 C   0  0  0  0  0  0  0  0  0  0  0  0
  1  2  1  0
  2  3  1  0
  3  4  1  0
  4  5  1  0
  5  6  1  0
  6  7  1  0
  7  8  1  0
  7  9  1  0
  9 10  1  0
 10 11  1  0
  7 12  1  0
 12 13  2  3
 13 14  1  0
 14 15  1  0
 15 16  2  0
 16 17  1  0
 17 18  2  0
 18 19  1  0
 19 20  1  0
 20 21  1  0
 21 22  1  0
 22 23  1  0
 23 24  1  0
 24 25  2  3
 25 26  1  0
 26 27  2  0
 27 28  1  0
 28 29  2  0
 29 30  1  0
 30 31  1  0
 31 32  1  0
 32 33  2  0
 33 34  2  0
  9  1  1  0
 19 14  2  0
 22 16  1  0
 29 18  1  0
 30 26  1  0
 32 30  1  0
 34 31  1  0
M  RAD  2   3   2   5   2
M  END
>  <docking_score>  (1) 
-8.6039999999999992

$$$$

     RDKit          3D

 34 40  0  0  0  0  0  0  0  0999 V2000
   14.1986   -6.0862   13.8007 C   0  0  0  0  0  0  0  0  0  0  0  0
   15.2874   -5.0561   13.7441 N   0  0  0  0  0  0  0  0  0  0  0  0
   15.9332   -4.1393   14.7404 C   0  0  0  0  0  3  0  0  0  0  0  0
   15.7574   -3.8729   16.2061 C   0  0  0  0  0  0  0  0  0  0  0  0
   14.8631   -4.4130   17.2825 C   0  0  0  0  0  3  0  0  0  0  0  0
   13.7743   -5.4431   17.3392 O   0  0  0  0  0  0  0  0  0  0  0  0
   13.1286   -6.3599   16.3428 C   0  0  0  0  0  0  0  0  0  0  0  0
   12.1224   -7.4238   16.0182 C   0  0  0  0  0  0  0  0  0  0  0  0
   13.3044   -6.6262   14.8772 C   0  0  0  0  0  0  0  0  0  0  0  0
   12.3657   -7.6798   14.3686 O   0  0  0  0  0  0  0  0  0  0  0  0
   12.3303   -8.0101   12.9058 C   0  0  0  0  0  0  0  0  0  0  0  0
   12.4320   -6.6442   17.6404 N   0  0  0  0  0  0  0  0  0  0  0  0
   11.5994   -5.5809   18.2934 C   0  0  0  0  0  0  0  0  0  0  0  0
   10.9028   -5.8653   19.5910 C   0  0  0  0  0  0  0  0  0  0  0  0
   10.2323   -4.6913   20.2407 C   0  0  0  0  0  0  0  0  0  0  0  0
    9.4622   -4.6481   21.5272 C   0  0  0  0  0  0  0  0  0  0  0  0
    9.2535   -3.1843   21.2748 C   0  0  0  0  0  0  0  0  0  0  0  0
    8.6261   -1.9360   21.8208 C   0  0  0  0  0  0  0  0  0  0  0  0
   10.9687   -7.2861   20.0674 C   0  0  0  0  0  0  0  0  0  0  0  0
   10.3806   -7.8838   21.3110 C   0  0  0  0  0  0  0  0  0  0  0  0
    9.5811   -7.2083   22.3856 C   0  0  0  0  0  0  0  0  0  0  0  0
    9.1724   -5.7683   22.4818 C   0  0  0  0  0  0  0  0  0  0  0  0
    8.4948   -6.1171   23.7738 C   0  0  0  0  0  0  0  0  0  0  0  0
    7.6882   -5.5610   24.9098 C   0  0  0  0  0  0  0  0  0  0  0  0
    7.0608   -4.3128   25.4558 C   0  0  0  0  0  0  0  0  0  0  0  0
    6.8522   -2.8490   25.2033 C   0  0  0  0  0  0  0  0  0  0  0  0
    7.6060   -3.7975   24.3191 C   0  0  0  0  0  0  0  0  0  0  0  0
    8.1146   -3.0252   23.1379 C   0  0  0  0  0  0  0  0  0  0  0  0
    7.6751   -1.5994   23.2923 C   0  0  0  0  0  0  0  0  0  0  0  0
    6.8949   -1.4905   24.5687 C   0  0  0  0  0  0  0  0  0  0  0  0
    6.6058   -0.0233   24.4510 C   0  0  0  0  0  0  0  0  0  0  0  0
    6.0972   -0.7956   25.6322 C   0  0  0  0  0  0  0  0  0  0  0  0
    5.4698    0.4527   26.1782 C   0  0  0  0  0  0  0  0  0  0  0  0
    5.9784    1.2250   24.9971 C   0  0  0  0  0  0  0  0  0  0  0  0
  1  2  1  0
  2  3  1  0
  3  4  1  0
  4  5  1  0
  5  6  1  0
  6  7  1  0
  7  8  1  0
  7  9  1  0
  9 10  1  0
 10 11  1  0
  7 12  1  0
 12 13  2  3
 13 14  1  0
 14 15  1  0
 15 16  2  0
 16 17  1  0
 17 18  2  0
 18 19  1  0
 19 20  1  0
 20 21  1  0
 21 22  1  0
 22 23  1  0
 23 24  1  0
 24 25  2  3
 25 26  1  0
 26 27  2  0
 27 28  1  0
 28 29  2  0
 29 30  1  0
 30 31  1  0
 31 32  1  0
 32 33  2  0
 33 34  2  0
  9  1  1  0
 19 14  2  0
 22 16  1  0
 29 18  1  0
 30 26  1  0
 32 30  1  0
 34 31  1  0
M  RAD  2   3   2   5   2
M  END
>  <docking_score>  (2) 
-7.4809999999999999

$$$$

     RDKit          3D

 34 40  0  0  0  0  0  0  0  0999 V2000
   13.9782   -5.8255   12.8069 C   0  0  0  0  0  0  0  0  0  0  0  0
   13.1949   -6.1675   11.5742 N   0  0  0  0  0  0  0  0  0  0  0  0
   11.7364   -6.2605   11.2361 C   0  0  0  0  0  3  0  0  0  0  0  0
   10.4572   -6.0500   11.9907 C   0  0  0  0  0  0  0  0  0  0  0  0
   10.1066   -5.6593   13.3958 C   0  0  0  0  0  3  0  0  0  0  0  0
   10.8899   -5.3173   14.6285 O   0  0  0  0  0  0  0  0  0  0  0  0
   12.3484   -5.2243   14.9665 C   0  0  0  0  0  0  0  0  0  0  0  0
   13.4361   -4.9484   15.9619 C   0  0  0  0  0  0  0  0  0  0  0  0
   13.6275   -5.4348   14.2120 C   0  0  0  0  0  0  0  0  0  0  0  0
   14.8408   -5.1994   15.0620 O   0  0  0  0  0  0  0  0  0  0  0  0
   16.1073   -4.6933   14.4377 C   0  0  0  0  0  0  0  0  0  0  0  0
   11.6322   -4.8710   16.2363 N   0  0  0  0  0  0  0  0  0  0  0  0
   11.1411   -3.4707   16.4557 C   0  0  0  0  0  0  0  0  0  0  0  0
   10.4250   -3.1174   17.7254 C   0  0  0  0  0  0  0  0  0  0  0  0
   10.3728   -4.1971   18.7653 C   0  0  0  0  0  0  0  0  0  0  0  0
    9.7385   -4.1572   20.1240 C   0  0  0  0  0  0  0  0  0  0  0  0
   10.2057   -5.5705   20.3094 C   0  0  0  0  0  0  0  0  0  0  0  0
   10.2228   -6.7277   21.2636 C   0  0  0  0  0  0  0  0  0  0  0  0
    9.8556   -1.7310   17.7874 C   0  0  0  0  0  0  0  0  0  0  0  0
    9.0935   -1.0820   18.9045 C   0  0  0  0  0  0  0  0  0  0  0  0
    8.7125   -1.6591   20.2357 C   0  0  0  0  0  0  0  0  0  0  0  0
    8.9996   -3.0277   20.7783 C   0  0  0  0  0  0  0  0  0  0  0  0
    8.2712   -2.6133   22.0225 C   0  0  0  0  0  0  0  0  0  0  0  0
    7.8317   -3.0724   23.3812 C   0  0  0  0  0  0  0  0  0  0  0  0
    7.8487   -4.2296   24.3354 C   0  0  0  0  0  0  0  0  0  0  0  0
    8.3160   -5.6429   24.5208 C   0  0  0  0  0  0  0  0  0  0  0  0
    8.5381   -4.7932   23.3048 C   0  0  0  0  0  0  0  0  0  0  0  0
    9.3095   -5.6049   22.3067 C   0  0  0  0  0  0  0  0  0  0  0  0
    9.5641   -6.9562   22.9059 C   0  0  0  0  0  0  0  0  0  0  0  0
    8.9501   -6.9797   24.2742 C   0  0  0  0  0  0  0  0  0  0  0  0
    9.3506   -8.3877   24.6016 C   0  0  0  0  0  0  0  0  0  0  0  0
    8.5792   -7.5760   25.5997 C   0  0  0  0  0  0  0  0  0  0  0  0
    8.5963   -8.7332   26.5540 C   0  0  0  0  0  0  0  0  0  0  0  0
    9.3677   -9.5449   25.5559 C   0  0  0  0  0  0  0  0  0  0  0  0
  1  2  1  0
  2  3  1  0
  3  4  1  0
  4  5  1  0
  5  6  1  0
  6  7  1  0
  7  8  1  0
  7  9  1  0
  9 10  1  0
 10 11  1  0
  7 12  1  0
 12 13  2  3
 13 14  1  0
 14 15  1  0
 15 16  2  0
 16 17  1  0
 17 18  2  0
 18 19  1  0
 19 20  1  0
 20 21  1  0
 21 22  1  0
 22 23  1  0
 23 24  1  0
 24 25  2  3
 25 26  1  0
 26 27  2  0
 27 28  1  0
 28 29  2  0
 29 30  1  0
 30 31  1  0
 31 32  1  0
 32 33  2  0
 33 34  2  0
  9  1  1  0
 19 14  2  0
 22 16  1  0
 29 18  1  0
 30 26  1  0
 32 30  1  0
 34 31  1  0
M  RAD  2   3   2   5   2
M  END
>  <docking_score>  (3) 
-7.1420000000000003

$$$$
