
     RDKit          3D

 24 27  0  0  0  0  0  0  0  0999 V2000
   18.0083   -2.7559   -2.0535 C   0  0  0  0  0  0  0  0  0  0  0  0
   18.3845   -1.5224   -2.6797 O   0  0  0  0  0  0  0  0  0  0  0  0
   18.7260   -1.3172   -3.8932 C   0  0  0  0  0  0  0  0  0  0  0  0
   19.0096   -1.1559   -5.0659 C   0  0  0  0  0  0  0  0  0  0  0  0
   18.4503   -1.6671   -6.2792 C   0  0  0  0  0  0  0  0  0  0  0  0
   18.3797   -2.8377   -6.7919 C   0  0  0  0  0  0  0  0  0  0  0  0
   17.7181   -3.1229   -8.1251 C   0  0  0  0  0  0  0  0  0  0  0  0
   16.5393   -2.2301   -8.2664 C   0  0  0  0  0  0  0  0  0  0  0  0
   15.2365   -2.8864   -7.7942 C   0  0  2  0  0  0  0  0  0  0  0  0
   15.1221   -2.3794   -6.3821 C   0  0  0  0  0  0  0  0  0  0  0  0
   14.7059   -1.0926   -5.9774 C   0  0  0  0  0  0  0  0  0  0  0  0
   14.8047   -0.7932   -4.6602 C   0  0  0  0  0  0  0  0  0  0  0  0
   15.2995   -1.7546   -3.8252 C   0  0  0  0  0  0  0  0  0  0  0  0
   15.3804   -1.3939   -2.4552 O   0  0  0  0  0  0  0  0  0  0  0  0
   15.7202   -3.0461   -4.2173 C   0  0  0  0  0  0  0  0  0  0  0  0
   15.6090   -3.3414   -5.5571 C   0  0  0  0  0  0  0  0  0  0  0  0
   15.4233   -4.2891   -7.5771 N   0  0  0  0  0  0  0  0  0  0  0  0
   15.7668   -4.5093   -6.4158 N   0  0  0  0  0  0  0  0  0  0  0  0
   18.9542   -4.0255   -6.1122 C   0  0  0  0  0  0  0  0  0  0  0  0
   18.7685   -3.9246   -4.6734 C   0  0  0  0  0  0  0  0  0  0  0  0
   18.1960   -4.9769   -3.8859 C   0  0  0  0  0  0  0  0  0  0  0  0
   17.0863   -4.9254   -3.1762 C   0  0  0  0  0  0  0  0  0  0  0  0
   16.2440   -3.7945   -3.0664 C   0  0  1  0  0  0  0  0  0  0  0  0
   16.6645   -2.9817   -2.0091 O   0  0  0  0  0  0  0  0  0  0  0  0
  1  2  1  0
  2  3  1  0
  3  4  2  3
  4  5  1  0
  5  6  2  3
  6  7  1  0
  7  8  1  0
  9  8  1  1
  9 10  1  0
 10 11  2  0
 11 12  1  0
 12 13  2  0
 13 14  1  0
 13 15  1  0
 15 16  2  0
  9 17  1  0
 17 18  2  0
  6 19  1  0
 19 20  1  0
 20 21  1  0
 21 22  2  3
 22 23  1  0
 23 24  1  1
 24  1  1  0
 16 10  1  0
 23 15  1  0
 18 16  1  0
M  END
>  <docking_score>  (1) 
-6.8719999999999999

$$$$

     RDKit          3D

 24 27  0  0  0  0  0  0  0  0999 V2000
   19.6917   -5.2552   -3.7106 C   0  0  0  0  0  0  0  0  0  0  0  0
   20.1057   -3.8992   -3.9234 O   0  0  0  0  0  0  0  0  0  0  0  0
   19.6959   -3.0707   -4.8050 C   0  0  0  0  0  0  0  0  0  0  0  0
   19.2528   -2.2988   -5.6353 C   0  0  0  0  0  0  0  0  0  0  0  0
   17.9267   -2.0266   -6.0977 C   0  0  0  0  0  0  0  0  0  0  0  0
   17.0618   -2.7121   -6.7459 C   0  0  0  0  0  0  0  0  0  0  0  0
   15.6937   -2.1810   -7.1236 C   0  0  0  0  0  0  0  0  0  0  0  0
   15.2069   -1.3093   -6.0237 C   0  0  0  0  0  0  0  0  0  0  0  0
   14.3303   -2.0597   -5.0140 C   0  0  2  0  0  0  0  0  0  0  0  0
   15.3217   -2.4163   -3.9399 C   0  0  0  0  0  0  0  0  0  0  0  0
   15.8458   -1.5530   -2.9534 C   0  0  0  0  0  0  0  0  0  0  0  0
   16.8329   -2.0389   -2.1635 C   0  0  0  0  0  0  0  0  0  0  0  0
   17.2472   -3.3225   -2.3807 C   0  0  0  0  0  0  0  0  0  0  0  0
   18.2807   -3.7858   -1.5259 O   0  0  0  0  0  0  0  0  0  0  0  0
   16.7317   -4.1968   -3.3649 C   0  0  0  0  0  0  0  0  0  0  0  0
   15.7244   -3.6944   -4.1572 C   0  0  0  0  0  0  0  0  0  0  0  0
   13.9749   -3.3539   -5.5123 N   0  0  0  0  0  0  0  0  0  0  0  0
   14.8063   -4.1958   -5.1731 N   0  0  0  0  0  0  0  0  0  0  0  0
   17.3378   -4.1011   -7.1901 C   0  0  0  0  0  0  0  0  0  0  0  0
   18.1206   -4.8070   -6.1880 C   0  0  0  0  0  0  0  0  0  0  0  0
   17.7507   -6.0931   -5.6742 C   0  0  0  0  0  0  0  0  0  0  0  0
   17.4544   -6.3954   -4.4257 C   0  0  0  0  0  0  0  0  0  0  0  0
   17.4477   -5.4797   -3.3478 C   0  0  1  0  0  0  0  0  0  0  0  0
   18.7184   -5.4087   -2.7683 O   0  0  0  0  0  0  0  0  0  0  0  0
  1  2  1  0
  2  3  1  0
  3  4  2  3
  4  5  1  0
  5  6  2  3
  6  7  1  0
  7  8  1  0
  9  8  1  6
  9 10  1  0
 10 11  2  0
 11 12  1  0
 12 13  2  0
 13 14  1  0
 13 15  1  0
 15 16  2  0
  9 17  1  0
 17 18  2  0
  6 19  1  0
 19 20  1  0
 20 21  1  0
 21 22  2  3
 22 23  1  0
 23 24  1  6
 24  1  1  0
 16 10  1  0
 23 15  1  0
 18 16  1  0
M  END
>  <docking_score>  (2) 
-6.8140000000000001

$$$$

     RDKit          3D

 24 27  0  0  0  0  0  0  0  0999 V2000
   14.9191   -1.4193   -5.5770 C   0  0  0  0  0  0  0  0  0  0  0  0
   14.0040   -2.4271   -5.1274 O   0  0  0  0  0  0  0  0  0  0  0  0
   13.9689   -3.6659   -5.4370 C   0  0  0  0  0  0  0  0  0  0  0  0
   13.9915   -4.8478   -5.7271 C   0  0  0  0  0  0  0  0  0  0  0  0
   15.0559   -5.7939   -5.8625 C   0  0  0  0  0  0  0  0  0  0  0  0
   16.0356   -5.9068   -6.6783 C   0  0  0  0  0  0  0  0  0  0  0  0
   17.0508   -7.0297   -6.6080 C   0  0  0  0  0  0  0  0  0  0  0  0
   17.2951   -7.3549   -5.1793 C   0  0  0  0  0  0  0  0  0  0  0  0
   18.4982   -6.6043   -4.5961 C   0  0  2  0  0  0  0  0  0  0  0  0
   17.8427   -5.4181   -3.9424 C   0  0  0  0  0  0  0  0  0  0  0  0
   17.1478   -5.4073   -2.7136 C   0  0  0  0  0  0  0  0  0  0  0  0
   16.5127   -4.2618   -2.3689 C   0  0  0  0  0  0  0  0  0  0  0  0
   16.5903   -3.2070   -3.2337 C   0  0  0  0  0  0  0  0  0  0  0  0
   15.9114   -2.0294   -2.8264 O   0  0  0  0  0  0  0  0  0  0  0  0
   17.2817   -3.2047   -4.4668 C   0  0  0  0  0  0  0  0  0  0  0  0
   17.9288   -4.3720   -4.8035 C   0  0  0  0  0  0  0  0  0  0  0  0
   19.2556   -5.9729   -5.6341 N   0  0  0  0  0  0  0  0  0  0  0  0
   18.8465   -4.8304   -5.8399 N   0  0  0  0  0  0  0  0  0  0  0  0
   16.2542   -4.9341   -7.7778 C   0  0  0  0  0  0  0  0  0  0  0  0
   15.9140   -3.5898   -7.3396 C   0  0  0  0  0  0  0  0  0  0  0  0
   16.7965   -2.4714   -7.4990 C   0  0  0  0  0  0  0  0  0  0  0  0
   17.3243   -1.7324   -6.5435 C   0  0  0  0  0  0  0  0  0  0  0  0
   17.1081   -1.9199   -5.1583 C   0  0  1  0  0  0  0  0  0  0  0  0
   15.9789   -1.2056   -4.7462 O   0  0  0  0  0  0  0  0  0  0  0  0
  1  2  1  0
  2  3  1  0
  3  4  2  3
  4  5  1  0
  5  6  2  3
  6  7  1  0
  7  8  1  0
  9  8  1  6
  9 10  1  0
 10 11  2  0
 11 12  1  0
 12 13  2  0
 13 14  1  0
 13 15  1  0
 15 16  2  0
  9 17  1  0
 17 18  2  0
  6 19  1  0
 19 20  1  0
 20 21  1  0
 21 22  2  3
 22 23  1  0
 23 24  1  6
 24  1  1  0
 16 10  1  0
 23 15  1  0
 18 16  1  0
M  END
>  <docking_score>  (3) 
-6.7949999999999999

$$$$
