
     RDKit          3D

 25 29  0  0  0  0  0  0  0  0999 V2000
   18.3202   -2.5806   -2.7234 C   0  0  0  0  0  0  0  0  0  0  0  0
   17.0988   -1.7927   -3.0947 O   0  0  0  0  0  0  0  0  0  0  0  0
   15.7827   -1.7692   -3.8139 C   0  0  0  0  0  0  0  0  0  0  0  0
   14.7896   -2.5175   -4.6528 C   0  0  0  0  0  0  0  0  0  0  0  0
   14.4348   -3.8001   -5.3451 C   0  0  0  0  0  0  0  0  0  0  0  0
   14.8311   -5.2096   -5.6708 C   0  0  0  0  0  0  0  0  0  0  0  0
   13.7215   -5.7785   -6.5048 N   0  0  0  0  0  0  0  0  0  0  0  0
   15.8523   -6.2987   -5.5267 C   0  0  0  0  0  0  0  0  0  0  0  0
   17.0761   -6.0585   -4.7566 C   0  0  0  0  0  0  0  0  0  0  0  0
   18.3779   -6.3439   -4.1465 C   0  0  0  0  0  0  0  0  0  0  0  0
   18.1253   -7.6705   -4.7993 C   0  0  0  0  0  0  0  0  0  0  0  0
   18.6840   -8.2316   -4.7070 Br  0  0  0  0  0  0  0  0  0  0  0  0
   17.0904   -8.3597   -5.6384 C   0  0  0  0  0  0  0  0  0  0  0  0
   17.2472   -7.0969   -5.0634 C   0  0  0  0  0  0  0  0  0  0  0  0
   18.5795   -7.3001   -4.4047 C   0  0  0  0  0  0  0  0  0  0  0  0
   18.9211   -8.0150   -4.4920 C   0  0  0  0  0  0  0  0  0  0  0  0
   19.5726   -6.5517   -3.5658 C   0  0  0  0  0  0  0  0  0  0  0  0
   19.7619   -5.2021   -2.9391 C   0  0  0  0  0  0  0  0  0  0  0  0
   19.0587   -3.8826   -2.8181 C   0  0  0  0  0  0  0  0  0  0  0  0
   20.3868   -4.2498   -2.2251 C   0  0  0  0  0  0  0  0  0  0  0  0
   21.3041   -3.4054   -1.3910 C   0  0  0  0  0  0  0  0  0  0  0  0
   21.1200   -1.9856   -0.9439 C   0  0  0  0  0  0  0  0  0  0  0  0
   19.9731   -1.0592   -1.2204 C   0  0  0  0  0  0  0  0  0  0  0  0
   18.7270   -1.3240   -2.0124 C   0  0  0  0  0  0  0  0  0  0  0  0
   19.0803   -5.2855   -3.3486 C   0  0  0  0  0  0  0  0  0  0  0  0
  1  2  1  0
  2  3  1  0
  3  4  2  3
  4  5  1  0
  5  6  2  3
  6  7  1  0
  6  8  1  0
  8  9  1  0
  9 10  2  0
 10 11  1  0
 11 12  1  0
 11 13  2  0
 13 14  1  0
 14 15  1  0
 15 16  1  0
 15 17  1  0
 17 18  3  0
 18 19  1  0
 19 20  1  0
 20 21  1  0
 21 22  1  0
 22 23  1  0
 23 24  2  0
 24 25  1  0
 19  1  1  0
 24  1  1  0
 14  8  2  0
 25 10  1  0
 25 19  1  0
M  END
>  <docking_score>  (1) 
-7.7910000000000004

$$$$

     RDKit          3D

 25 29  0  0  0  0  0  0  0  0999 V2000
   17.0949   -5.9871   -6.9973 C   0  0  0  0  0  0  0  0  0  0  0  0
   16.5556   -5.2034   -8.1572 O   0  0  0  0  0  0  0  0  0  0  0  0
   15.9096   -3.9358   -8.6324 C   0  0  0  0  0  0  0  0  0  0  0  0
   15.3619   -2.5867   -8.2721 C   0  0  0  0  0  0  0  0  0  0  0  0
   15.0864   -1.5844   -7.1907 C   0  0  0  0  0  0  0  0  0  0  0  0
   15.1706   -1.2471   -5.7315 C   0  0  0  0  0  0  0  0  0  0  0  0
   14.5797    0.1232   -5.5798 N   0  0  0  0  0  0  0  0  0  0  0  0
   15.5877   -1.6819   -4.3579 C   0  0  0  0  0  0  0  0  0  0  0  0
   16.2091   -2.9949   -4.1620 C   0  0  0  0  0  0  0  0  0  0  0  0
   16.8275   -4.1144   -3.4460 C   0  0  0  0  0  0  0  0  0  0  0  0
   16.5988   -3.1888   -2.2881 C   0  0  0  0  0  0  0  0  0  0  0  0
   16.8298   -3.4444   -1.5692 Br  0  0  0  0  0  0  0  0  0  0  0  0
   16.0352   -1.8293   -1.9976 C   0  0  0  0  0  0  0  0  0  0  0  0
   16.2117   -2.6290   -3.1286 C   0  0  0  0  0  0  0  0  0  0  0  0
   16.8515   -3.8202   -2.4793 C   0  0  0  0  0  0  0  0  0  0  0  0
   16.9635   -3.7860   -1.6908 C   0  0  0  0  0  0  0  0  0  0  0  0
   17.3992   -5.1694   -2.8396 C   0  0  0  0  0  0  0  0  0  0  0  0
   17.5986   -6.0452   -4.0409 C   0  0  0  0  0  0  0  0  0  0  0  0
   17.3562   -6.0379   -5.5212 C   0  0  0  0  0  0  0  0  0  0  0  0
   17.9811   -7.1409   -4.7194 C   0  0  0  0  0  0  0  0  0  0  0  0
   18.4990   -8.4657   -5.1959 C   0  0  0  0  0  0  0  0  0  0  0  0
   18.5200   -9.0143   -6.5917 C   0  0  0  0  0  0  0  0  0  0  0  0
   18.0283   -8.3740   -7.8559 C   0  0  0  0  0  0  0  0  0  0  0  0
   17.3940   -7.0268   -8.0364 C   0  0  0  0  0  0  0  0  0  0  0  0
   17.2565   -5.3398   -4.1973 C   0  0  0  0  0  0  0  0  0  0  0  0
  1  2  1  0
  2  3  1  0
  3  4  2  3
  4  5  1  0
  5  6  2  3
  6  7  1  0
  6  8  1  0
  8  9  1  0
  9 10  2  0
 10 11  1  0
 11 12  1  0
 11 13  2  0
 13 14  1  0
 14 15  1  0
 15 16  1  0
 15 17  1  0
 17 18  3  0
 18 19  1  0
 19 20  1  0
 20 21  1  0
 21 22  1  0
 22 23  1  0
 23 24  2  0
 24 25  1  0
 19  1  1  0
 24  1  1  0
 14  8  2  0
 25 10  1  0
 25 19  1  0
M  END
>  <docking_score>  (2) 
-7.5359999999999996

$$$$

     RDKit          3D

 25 29  0  0  0  0  0  0  0  0999 V2000
   19.1384   -4.7984   -3.2357 C   0  0  0  0  0  0  0  0  0  0  0  0
   19.0912   -6.0295   -4.0915 O   0  0  0  0  0  0  0  0  0  0  0  0
   18.3472   -6.8179   -5.1282 C   0  0  0  0  0  0  0  0  0  0  0  0
   17.1425   -6.9133   -6.0169 C   0  0  0  0  0  0  0  0  0  0  0  0
   15.8597   -6.2855   -6.4752 C   0  0  0  0  0  0  0  0  0  0  0  0
   14.9061   -5.1336   -6.3578 C   0  0  0  0  0  0  0  0  0  0  0  0
   13.7846   -5.4145   -7.3135 N   0  0  0  0  0  0  0  0  0  0  0  0
   14.5842   -3.8236   -5.7019 C   0  0  0  0  0  0  0  0  0  0  0  0
   15.4961   -3.2614   -4.7015 C   0  0  0  0  0  0  0  0  0  0  0  0
   16.0120   -2.3107   -3.7124 C   0  0  0  0  0  0  0  0  0  0  0  0
   14.7514   -1.5941   -4.0962 C   0  0  0  0  0  0  0  0  0  0  0  0
   14.6045   -0.9000   -3.7326 Br  0  0  0  0  0  0  0  0  0  0  0  0
   13.5722   -1.7525   -5.0096 C   0  0  0  0  0  0  0  0  0  0  0  0
   14.7235   -2.4838   -4.7104 C   0  0  0  0  0  0  0  0  0  0  0  0
   15.3260   -1.5688   -3.6859 C   0  0  0  0  0  0  0  0  0  0  0  0
   14.9240   -0.9020   -3.5151 C   0  0  0  0  0  0  0  0  0  0  0  0
   16.5307   -1.4734   -2.7972 C   0  0  0  0  0  0  0  0  0  0  0  0
   17.7738   -2.2422   -2.4603 C   0  0  0  0  0  0  0  0  0  0  0  0
   18.4737   -3.5156   -2.8328 C   0  0  0  0  0  0  0  0  0  0  0  0
   18.9361   -2.4961   -1.8343 C   0  0  0  0  0  0  0  0  0  0  0  0
   20.1775   -2.5078   -0.9921 C   0  0  0  0  0  0  0  0  0  0  0  0
   21.2628   -3.5418   -0.9406 C   0  0  0  0  0  0  0  0  0  0  0  0
   21.3751   -4.8195   -1.7183 C   0  0  0  0  0  0  0  0  0  0  0  0
   20.4296   -5.3788   -2.7398 C   0  0  0  0  0  0  0  0  0  0  0  0
   17.3083   -2.5882   -3.0104 C   0  0  0  0  0  0  0  0  0  0  0  0
  1  2  1  0
  2  3  1  0
  3  4  2  3
  4  5  1  0
  5  6  2  3
  6  7  1  0
  6  8  1  0
  8  9  1  0
  9 10  2  0
 10 11  1  0
 11 12  1  0
 11 13  2  0
 13 14  1  0
 14 15  1  0
 15 16  1  0
 15 17  1  0
 17 18  3  0
 18 19  1  0
 19 20  1  0
 20 21  1  0
 21 22  1  0
 22 23  1  0
 23 24  2  0
 24 25  1  0
 19  1  1  0
 24  1  1  0
 14  8  2  0
 25 10  1  0
 25 19  1  0
M  END
>  <docking_score>  (3) 
-7.3099999999999996

$$$$
