
     RDKit          3D

 23 24  0  0  0  0  0  0  0  0999 V2000
   15.8891   -1.0016   -1.5559 C   0  0  0  0  0  0  0  0  0  0  0  0
   15.7019   -1.6864   -2.8799 C   0  0  0  0  0  0  0  0  0  0  0  0
   14.8966   -1.3857   -3.9320 C   0  0  0  0  0  0  0  0  0  0  0  0
   15.0911   -2.2904   -4.9519 C   0  0  0  0  0  0  0  0  0  0  0  0
   16.0074   -3.1449   -4.5424 C   0  0  0  0  0  0  0  0  0  0  0  0
   16.4992   -4.4069   -5.1059 C   0  0  0  0  0  0  0  0  0  0  0  0
   17.6364   -4.3786   -5.9339 C   0  0  0  0  0  0  0  0  0  0  0  0
   18.1584   -5.5273   -6.4533 C   0  0  0  0  0  0  0  0  0  0  0  0
   17.6183   -6.7546   -6.2108 C   0  0  0  0  0  0  0  0  0  0  0  0
   18.2117   -8.2300   -6.9619 S   0  0  0  0  0  0  0  0  0  0  0  0
   19.9414   -8.3589   -6.5636 C   0  0  0  0  0  0  0  0  0  0  0  0
   17.9949   -8.2694   -8.4202 O   0  0  0  0  0  0  0  0  0  0  0  0
   17.4930   -9.4460   -6.3661 O   0  0  0  0  0  0  0  0  0  0  0  0
   16.4927   -6.8221   -5.3931 C   0  0  0  0  0  0  0  0  0  0  0  0
   15.9621   -5.6479   -4.8615 C   0  0  0  0  0  0  0  0  0  0  0  0
   16.4214   -2.8003   -3.2328 N   0  0  0  0  0  0  0  0  0  0  0  0
   17.2809   -3.6272   -2.5296 C   0  0  0  0  0  0  0  0  0  0  0  0
   18.3236   -3.7928   -1.9300 C   0  0  0  0  0  0  0  0  0  0  0  0
   19.6776   -2.7281   -1.5404 S   0  0  0  0  0  0  0  0  0  0  0  0
   19.6093   -1.3513   -2.8177 C   0  0  0  0  0  0  0  0  0  0  0  0
   21.2164   -1.5785   -3.6915 S   0  0  0  0  0  0  0  0  0  0  0  0
   20.9704   -2.2220   -5.2837 C   0  0  0  0  0  0  0  0  0  0  0  0
   20.7789   -2.6960   -6.4159 N   0  0  0  0  0  0  0  0  0  0  0  0
  1  2  1  0
  2  3  2  0
  3  4  1  0
  4  5  2  0
  5  6  1  0
  6  7  2  0
  7  8  1  0
  8  9  2  0
  9 10  1  0
 10 11  1  0
 10 12  2  0
 10 13  2  0
  9 14  1  0
 14 15  2  0
  5 16  1  0
 16 17  1  0
 17 18  2  3
 18 19  1  0
 19 20  1  0
 20 21  1  0
 21 22  1  0
 22 23  3  0
 16  2  1  0
 15  6  1  0
M  END
>  <docking_score>  (1) 
-3.8959999999999999

$$$$

     RDKit          3D

 23 24  0  0  0  0  0  0  0  0999 V2000
   15.0844   -0.4539   -2.5358 C   0  0  0  0  0  0  0  0  0  0  0  0
   14.9705   -1.4418   -3.6619 C   0  0  0  0  0  0  0  0  0  0  0  0
   14.0927   -1.5158   -4.6962 C   0  0  0  0  0  0  0  0  0  0  0  0
   14.4014   -2.5872   -5.5045 C   0  0  0  0  0  0  0  0  0  0  0  0
   15.4596   -3.1745   -4.9822 C   0  0  0  0  0  0  0  0  0  0  0  0
   16.1355   -4.4400   -5.2886 C   0  0  0  0  0  0  0  0  0  0  0  0
   15.4300   -5.6435   -5.1056 C   0  0  0  0  0  0  0  0  0  0  0  0
   15.9976   -6.8461   -5.4112 C   0  0  0  0  0  0  0  0  0  0  0  0
   17.2643   -6.9569   -5.9009 C   0  0  0  0  0  0  0  0  0  0  0  0
   18.0485   -8.5038   -6.1936 S   0  0  0  0  0  0  0  0  0  0  0  0
   19.7716   -8.2980   -5.7992 C   0  0  0  0  0  0  0  0  0  0  0  0
   17.8711   -8.9953   -7.5727 O   0  0  0  0  0  0  0  0  0  0  0  0
   17.4687   -9.5697   -5.2568 O   0  0  0  0  0  0  0  0  0  0  0  0
   17.9926   -5.7860   -6.0975 C   0  0  0  0  0  0  0  0  0  0  0  0
   17.4106   -4.5582   -5.7871 C   0  0  0  0  0  0  0  0  0  0  0  0
   15.8530   -2.4819   -3.8114 N   0  0  0  0  0  0  0  0  0  0  0  0
   16.8602   -2.9846   -3.0053 C   0  0  0  0  0  0  0  0  0  0  0  0
   17.8588   -2.8075   -2.3377 C   0  0  0  0  0  0  0  0  0  0  0  0
   18.8143   -1.3748   -1.9466 S   0  0  0  0  0  0  0  0  0  0  0  0
   20.0208   -1.1785   -3.3740 C   0  0  0  0  0  0  0  0  0  0  0  0
   21.2729   -2.4726   -2.9795 S   0  0  0  0  0  0  0  0  0  0  0  0
   21.2927   -3.7074   -4.1979 C   0  0  0  0  0  0  0  0  0  0  0  0
   21.2853   -4.5907   -5.0712 N   0  0  0  0  0  0  0  0  0  0  0  0
  1  2  1  0
  2  3  2  0
  3  4  1  0
  4  5  2  0
  5  6  1  0
  6  7  2  0
  7  8  1  0
  8  9  2  0
  9 10  1  0
 10 11  1  0
 10 12  2  0
 10 13  2  0
  9 14  1  0
 14 15  2  0
  5 16  1  0
 16 17  1  0
 17 18  2  3
 18 19  1  0
 19 20  1  0
 20 21  1  0
 21 22  1  0
 22 23  3  0
 16  2  1  0
 15  6  1  0
M  END
>  <docking_score>  (2) 
-3.7050000000000001

$$$$

     RDKit          3D

 23 24  0  0  0  0  0  0  0  0999 V2000
    3.8132    9.7734    5.8727 C   0  0  0  0  0  0  0  0  0  0  0  0
    3.9205    9.5690    7.3571 C   0  0  0  0  0  0  0  0  0  0  0  0
    3.8792    8.4357    8.1052 C   0  0  0  0  0  0  0  0  0  0  0  0
    4.0539    8.7399    9.4370 C   0  0  0  0  0  0  0  0  0  0  0  0
    4.2036   10.0469    9.5195 C   0  0  0  0  0  0  0  0  0  0  0  0
    4.2520   10.9624   10.6648 C   0  0  0  0  0  0  0  0  0  0  0  0
    5.5076   11.3875   11.1365 C   0  0  0  0  0  0  0  0  0  0  0  0
    5.6091   12.2681   12.1739 C   0  0  0  0  0  0  0  0  0  0  0  0
    4.5193   12.7804   12.8115 C   0  0  0  0  0  0  0  0  0  0  0  0
    4.6352   13.8275   14.2197 S   0  0  0  0  0  0  0  0  0  0  0  0
    6.3622   14.1786   14.4680 C   0  0  0  0  0  0  0  0  0  0  0  0
    4.0292   13.2442   15.4311 O   0  0  0  0  0  0  0  0  0  0  0  0
    3.9135   15.1523   13.9474 O   0  0  0  0  0  0  0  0  0  0  0  0
    3.2590   12.3840   12.3702 C   0  0  0  0  0  0  0  0  0  0  0  0
    3.1570   11.4863   11.3089 C   0  0  0  0  0  0  0  0  0  0  0  0
    4.1241   10.6131    8.2240 N   0  0  0  0  0  0  0  0  0  0  0  0
    4.1167   11.9878    8.0597 C   0  0  0  0  0  0  0  0  0  0  0  0
    4.5866   12.9886    7.5580 C   0  0  0  0  0  0  0  0  0  0  0  0
    5.9296   13.2684    6.4460 S   0  0  0  0  0  0  0  0  0  0  0  0
    5.1372   13.8779    4.8547 C   0  0  0  0  0  0  0  0  0  0  0  0
    6.6171   14.1873    3.8003 S   0  0  0  0  0  0  0  0  0  0  0  0
    6.5252   13.2826    2.3228 C   0  0  0  0  0  0  0  0  0  0  0  0
    6.4517   12.6181    1.2759 N   0  0  0  0  0  0  0  0  0  0  0  0
  1  2  1  0
  2  3  2  0
  3  4  1  0
  4  5  2  0
  5  6  1  0
  6  7  2  0
  7  8  1  0
  8  9  2  0
  9 10  1  0
 10 11  1  0
 10 12  2  0
 10 13  2  0
  9 14  1  0
 14 15  2  0
  5 16  1  0
 16 17  1  0
 17 18  2  3
 18 19  1  0
 19 20  1  0
 20 21  1  0
 21 22  1  0
 22 23  3  0
 16  2  1  0
 15  6  1  0
M  END
>  <docking_score>  (3) 
-2.5659999999999998

$$$$
