
     RDKit          3D

 26 26  0  0  0  0  0  0  0  0999 V2000
   18.2893   -2.0674   -6.3647 C   0  0  0  0  0  0  0  0  0  0  0  0
   18.8669   -3.2646   -5.6316 C   0  0  0  0  0  3  0  0  0  0  0  0
   18.8193   -3.0142   -4.1398 C   0  0  2  0  0  0  0  0  0  0  0  0
   19.1554   -1.5999   -3.8062 C   0  0  2  0  0  0  0  0  0  0  0  0
   20.4873   -1.2718   -4.0599 O   0  0  0  0  0  0  0  0  0  0  0  0
   18.7631   -1.3138   -2.3851 C   0  0  0  0  0  0  0  0  0  0  0  0
   20.0183   -1.4289   -1.5476 C   0  0  0  0  0  0  0  0  0  0  0  0
   20.8386   -2.3838   -2.1451 O   0  0  0  0  0  0  0  0  0  0  0  0
   20.1914   -3.5943   -2.1103 C   0  0  1  0  0  0  0  0  0  0  0  0
   19.1211   -3.5491   -1.2152 O   0  0  0  0  0  0  0  0  0  0  0  0
   19.7326   -4.0269   -3.4877 C   0  0  1  0  0  0  0  0  0  0  0  0
   18.9686   -5.2712   -3.3302 N   0  0  0  0  0  0  0  0  0  0  0  0
   19.8114   -6.3501   -3.7594 C   0  0  0  0  0  3  0  0  0  0  0  0
   19.1425   -7.6739   -3.8844 C   0  0  0  0  0  0  0  0  0  0  0  0
   18.6532   -7.8935   -5.2981 C   0  0  2  0  0  0  0  0  0  0  0  0
   19.2269   -6.9696   -6.1702 O   0  0  0  0  0  0  0  0  0  0  0  0
   17.1619   -7.7577   -5.3892 C   0  0  0  0  0  3  0  0  0  0  0  0
   16.8352   -6.4429   -6.0776 C   0  0  0  0  0  3  0  0  0  0  0  0
   15.9252   -5.5756   -5.2681 C   0  0  2  0  0  0  0  0  0  0  0  0
   15.2262   -6.2596   -4.2784 O   0  0  0  0  0  0  0  0  0  0  0  0
   14.9762   -4.8134   -6.1682 C   0  0  2  0  0  0  0  0  0  0  0  0
   15.6462   -4.2485   -7.2489 O   0  0  0  0  0  0  0  0  0  0  0  0
   14.2364   -3.7374   -5.4414 C   0  0  0  0  0  3  0  0  0  0  0  0
   14.8722   -2.3773   -5.6316 C   0  0  0  0  0  0  0  0  0  0  0  0
   14.5142   -1.4558   -4.4820 C   0  0  0  0  0  0  0  0  0  0  0  0
   15.4029   -1.6487   -3.4312 O   0  0  0  0  0  0  0  0  0  0  0  0
  1  2  1  0
  3  2  1  6
  3  4  1  0
  4  5  1  1
  4  6  1  0
  6  7  1  0
  7  8  1  0
  8  9  1  0
  9 10  1  1
  9 11  1  0
 11 12  1  1
 12 13  1  0
 13 14  1  0
 14 15  1  0
 15 16  1  6
 15 17  1  0
 17 18  1  0
 18 19  1  0
 19 20  1  1
 19 21  1  0
 21 22  1  6
 21 23  1  0
 23 24  1  0
 24 25  1  0
 25 26  1  0
 11  3  1  0
M  RAD  5   2   2  13   2  17   2  18   2  23   2
M  END
>  <docking_score>  (1) 
-3.8220000000000001

$$$$

     RDKit          3D

 26 26  0  0  0  0  0  0  0  0999 V2000
   15.4114   -1.6563   -3.7953 C   0  0  0  0  0  0  0  0  0  0  0  0
   15.5087   -1.2974   -5.2670 C   0  0  0  0  0  3  0  0  0  0  0  0
   16.4652   -2.2465   -5.9561 C   0  0  2  0  0  0  0  0  0  0  0  0
   17.8818   -1.9754   -5.5762 C   0  0  2  0  0  0  0  0  0  0  0  0
   18.3629   -0.7593   -6.0615 O   0  0  0  0  0  0  0  0  0  0  0  0
   18.7429   -3.1323   -5.9951 C   0  0  0  0  0  0  0  0  0  0  0  0
   19.3993   -2.7448   -7.3025 C   0  0  0  0  0  0  0  0  0  0  0  0
   18.5213   -1.9035   -7.9830 O   0  0  0  0  0  0  0  0  0  0  0  0
   17.3805   -2.6105   -8.2729 C   0  0  1  0  0  0  0  0  0  0  0  0
   17.6007   -3.9793   -8.1097 O   0  0  0  0  0  0  0  0  0  0  0  0
   16.2031   -2.1446   -7.4412 C   0  0  1  0  0  0  0  0  0  0  0  0
   15.0674   -3.0233   -7.7489 N   0  0  0  0  0  0  0  0  0  0  0  0
   14.8545   -3.8661   -6.6075 C   0  0  0  0  0  3  0  0  0  0  0  0
   14.3078   -5.2184   -6.9035 C   0  0  0  0  0  0  0  0  0  0  0  0
   14.9245   -6.2550   -5.9916 C   0  0  2  0  0  0  0  0  0  0  0  0
   14.1116   -6.4864   -4.8832 O   0  0  0  0  0  0  0  0  0  0  0  0
   16.2727   -5.8187   -5.4988 C   0  0  0  0  0  3  0  0  0  0  0  0
   16.2216   -5.7021   -3.9845 C   0  0  0  0  0  3  0  0  0  0  0  0
   17.5681   -5.4755   -3.3751 C   0  0  2  0  0  0  0  0  0  0  0  0
   18.3332   -6.6310   -3.2511 O   0  0  0  0  0  0  0  0  0  0  0  0
   17.4372   -4.7711   -2.0415 C   0  0  2  0  0  0  0  0  0  0  0  0
   16.1078   -4.6907   -1.6389 O   0  0  0  0  0  0  0  0  0  0  0  0
   18.0213   -3.3957   -2.0598 C   0  0  0  0  0  3  0  0  0  0  0  0
   19.4653   -3.3933   -2.5127 C   0  0  0  0  0  0  0  0  0  0  0  0
   20.3300   -4.1738   -1.5421 C   0  0  0  0  0  0  0  0  0  0  0  0
   20.2749   -3.5840   -0.2850 O   0  0  0  0  0  0  0  0  0  0  0  0
  1  2  1  0
  3  2  1  1
  3  4  1  0
  4  5  1  6
  4  6  1  0
  6  7  1  0
  7  8  1  0
  8  9  1  0
  9 10  1  1
  9 11  1  0
 11 12  1  1
 12 13  1  0
 13 14  1  0
 14 15  1  0
 15 16  1  1
 15 17  1  0
 17 18  1  0
 18 19  1  0
 19 20  1  1
 19 21  1  0
 21 22  1  6
 21 23  1  0
 23 24  1  0
 24 25  1  0
 25 26  1  0
 11  3  1  0
M  RAD  5   2   2  13   2  17   2  18   2  23   2
M  END
>  <docking_score>  (2) 
-3.589

$$$$

     RDKit          3D

 26 26  0  0  0  0  0  0  0  0999 V2000
   19.9227   -0.1569   -4.0491 C   0  0  0  0  0  0  0  0  0  0  0  0
   18.9711   -1.1379   -4.7097 C   0  0  0  0  0  3  0  0  0  0  0  0
   19.7179   -1.9418   -5.7520 C   0  0  2  0  0  0  0  0  0  0  0  0
   19.1610   -1.7267   -7.1188 C   0  0  2  0  0  0  0  0  0  0  0  0
   17.8801   -2.2537   -7.2849 O   0  0  0  0  0  0  0  0  0  0  0  0
   20.1265   -2.2531   -8.1416 C   0  0  0  0  0  0  0  0  0  0  0  0
   19.6340   -3.6244   -8.5506 C   0  0  0  0  0  0  0  0  0  0  0  0
   18.9973   -4.1907   -7.4480 O   0  0  0  0  0  0  0  0  0  0  0  0
   19.9240   -4.3524   -6.4479 C   0  0  1  0  0  0  0  0  0  0  0  0
   21.2177   -4.2281   -6.9576 O   0  0  0  0  0  0  0  0  0  0  0  0
   19.6930   -3.3855   -5.3049 C   0  0  1  0  0  0  0  0  0  0  0  0
   20.7872   -3.5670   -4.3424 N   0  0  0  0  0  0  0  0  0  0  0  0
   20.3939   -4.6072   -3.4358 C   0  0  0  0  0  3  0  0  0  0  0  0
   18.9394   -4.6704   -3.1266 C   0  0  0  0  0  0  0  0  0  0  0  0
   18.4436   -6.0979   -3.1807 C   0  0  2  0  0  0  0  0  0  0  0  0
   19.4512   -6.9562   -3.6177 O   0  0  0  0  0  0  0  0  0  0  0  0
   17.2754   -6.2373   -4.1116 C   0  0  0  0  0  3  0  0  0  0  0  0
   16.4785   -4.9436   -4.0877 C   0  0  0  0  0  3  0  0  0  0  0  0
   15.1832   -5.0473   -4.8274 C   0  0  2  0  0  0  0  0  0  0  0  0
   15.2048   -5.9586   -5.8786 O   0  0  0  0  0  0  0  0  0  0  0  0
   14.7331   -3.6837   -5.3066 C   0  0  2  0  0  0  0  0  0  0  0  0
   14.6077   -3.6490   -6.6920 O   0  0  0  0  0  0  0  0  0  0  0  0
   15.6575   -2.5910   -4.8770 C   0  0  0  0  0  3  0  0  0  0  0  0
   14.9761   -1.5881   -3.9714 C   0  0  0  0  0  0  0  0  0  0  0  0
   14.3265   -0.4877   -4.7875 C   0  0  0  0  0  0  0  0  0  0  0  0
   13.0931   -0.1605   -4.2371 O   0  0  0  0  0  0  0  0  0  0  0  0
  1  2  1  0
  3  2  1  1
  3  4  1  0
  4  5  1  1
  4  6  1  0
  6  7  1  0
  7  8  1  0
  8  9  1  0
  9 10  1  6
  9 11  1  0
 11 12  1  1
 12 13  1  0
 13 14  1  0
 14 15  1  0
 15 16  1  6
 15 17  1  0
 17 18  1  0
 18 19  1  0
 19 20  1  6
 19 21  1  0
 21 22  1  6
 21 23  1  0
 23 24  1  0
 24 25  1  0
 25 26  1  0
 11  3  1  0
M  RAD  5   2   2  13   2  17   2  18   2  23   2
M  END
>  <docking_score>  (3) 
-3.2389999999999999

$$$$
