
     RDKit          3D

 90 90  0  0  0  0  0  0  0  0999 V2000
   19.1863    7.2137   -2.8911 O   0  0  0  0  0  0  0  0  0  0  0  0
   19.6873    6.1981   -3.8748 C   0  0  0  0  0  0  0  0  0  0  0  0
   20.0528    5.0384   -4.7531 C   0  0  0  0  0  3  0  0  0  0  0  0
   20.2747    3.7603   -5.5063 N   0  0  0  0  0  0  0  0  0  0  0  0
   20.3481    2.3925   -6.1175 C   0  0  0  0  0  0  0  0  0  0  0  0
   21.3530    2.7887   -7.1583 C   0  0  0  0  0  0  0  0  0  0  0  0
   20.9173    3.5689   -8.3631 O   0  0  0  0  0  0  0  0  0  0  0  0
   20.2713    0.9655   -6.5733 C   0  0  0  0  0  0  0  0  0  0  0  0
   21.2648    1.1483   -7.6823 O   0  0  0  0  0  0  0  0  0  0  0  0
   20.0460   -0.4889   -6.8634 C   0  0  0  0  0  0  0  0  0  0  0  0
   21.0058   -0.5233   -8.0156 O   0  0  0  0  0  0  0  0  0  0  0  0
   19.6773   -1.9380   -6.9811 C   0  0  0  0  0  3  0  0  0  0  0  0
   19.1733   -3.3497   -6.9241 C   0  0  0  0  0  3  0  0  0  0  0  0
   18.5454   -4.6923   -6.6935 O   0  0  0  0  0  0  0  0  0  0  0  0
   17.8076   -5.9358   -6.2945 C   0  0  0  0  0  0  0  0  0  0  0  0
   16.9763   -7.0525   -5.7359 S   0  0  0  0  0  0  0  0  0  0  0  0
   16.0702   -8.0174   -5.0303 C   0  0  0  0  0  0  0  0  0  0  0  0
   15.1094   -8.8090   -4.1935 O   0  0  0  0  0  0  0  0  0  0  0  0
   14.1154   -9.4096   -3.2440 C   0  0  0  0  0  3  0  0  0  0  0  0
   13.1105   -9.8057   -2.2033 O   0  0  0  0  0  0  0  0  0  0  0  0
   12.1171   -9.9885   -1.0944 C   0  0  0  0  0  0  0  0  0  0  0  0
   11.8918  -11.4429   -1.3844 O   0  0  0  0  0  0  0  0  0  0  0  0
   11.1573   -9.9539    0.0579 C   0  0  0  0  0  0  0  0  0  0  0  0
   10.2527   -9.7028    1.2277 O   0  0  0  0  0  0  0  0  0  0  0  0
    9.4233   -9.2407    2.3890 O   0  0  0  0  0  0  0  0  0  0  0  0
    8.6879   -8.5779    3.5159 C   0  0  0  0  0  3  0  0  0  0  0  0
    8.0627   -7.7293    4.5831 C   0  0  0  0  0  3  0  0  0  0  0  0
    7.5617   -6.7138    5.5668 N   0  0  0  0  0  0  0  0  0  0  0  0
    7.1962   -5.5540    6.4451 O   0  0  0  0  0  0  0  0  0  0  0  0
    6.9742   -4.2760    7.1983 C   0  0  0  0  0  0  0  0  0  0  0  0
    5.9803   -4.8766    8.1477 O   0  0  0  0  0  0  0  0  0  0  0  0
    6.9009   -2.9082    7.8096 S   0  0  0  0  0  0  0  0  0  0  0  0
    6.9777   -1.4812    8.2654 N   0  0  0  0  0  0  0  0  0  0  0  0
    7.2030   -0.0268    8.5554 C   0  0  0  0  0  0  0  0  0  0  0  0
    6.2432    0.0077    9.7076 O   0  0  0  0  0  0  0  0  0  0  0  0
    7.5717    1.4223    8.6732 C   0  0  0  0  0  0  0  0  0  0  0  0
    6.6670    1.6735    9.8431 O   0  0  0  0  0  0  0  0  0  0  0  0
    8.0757    2.8341    8.6162 O   0  0  0  0  0  0  0  0  0  0  0  0
    8.7036    4.1767    8.3855 O   0  0  0  0  0  0  0  0  0  0  0  0
    9.4414    5.4202    7.9865 C   0  0  0  0  0  3  0  0  0  0  0  0
   10.2727    6.5369    7.4280 S   0  0  0  0  0  0  0  0  0  0  0  0
   11.1788    7.5017    6.7224 C   0  0  0  0  0  0  0  0  0  0  0  0
   10.8133    8.6615    7.6007 C   0  0  0  0  0  0  0  0  0  0  0  0
    9.3952    9.1481    7.6488 O   0  0  0  0  0  0  0  0  0  0  0  0
   12.1396    8.2934    5.8855 O   0  0  0  0  0  0  0  0  0  0  0  0
   13.1336    8.8939    4.9361 C   0  0  0  0  0  3  0  0  0  0  0  0
   14.1385    9.2900    3.8954 S   0  0  0  0  0  0  0  0  0  0  0  0
   15.1319    9.4729    2.7864 O   0  0  0  0  0  0  0  0  0  0  0  0
   16.0917    9.4383    1.6342 C   0  0  0  0  0  0  0  0  0  0  0  0
   16.4605   10.8875    1.7519 O   0  0  0  0  0  0  0  0  0  0  0  0
   16.9963    9.1872    0.4643 S   0  0  1  0  0  0  0  0  0  0  0  0
   17.5003   10.5988    0.4072 O   0  0  0  0  0  0  0  0  0  0  0  0
   17.8256    8.7251   -0.6970 C   0  0  0  0  0  3  0  0  0  0  0  0
   18.5611    8.0623   -1.8238 S   0  0  2  0  0  0  0  0  0  0  0  0
   19.2990    9.3059   -2.2229 C   0  0  0  0  0  0  0  0  0  0  0  0
   19.5233   10.3990   -1.2205 O   0  0  0  0  0  0  0  0  0  0  0  0
   19.8124    9.4563   -3.6242 S   0  0  0  0  0  0  0  0  0  0  0  0
   18.8704    9.8217   -4.7328 O   0  0  0  0  0  0  0  0  0  0  0  0
   18.0516    8.7579   -5.4023 O   0  0  0  0  0  0  0  0  0  0  0  0
   17.1250    7.9024   -4.5900 O   0  0  0  0  0  0  0  0  0  0  0  0
   17.4412    7.6091   -3.1534 C   0  0  0  0  0  0  0  0  0  0  0  0
   18.8648    7.6216   -2.6811 O   0  0  0  0  0  0  0  0  0  0  0  0
   16.3338    7.3034   -2.1889 S   0  0  0  0  0  0  0  0  0  0  0  0
   15.2394    6.3549   -2.5796 C   0  0  0  0  0  0  0  0  0  0  0  0
   13.8547    6.8718   -2.8350 O   0  0  0  0  0  0  0  0  0  0  0  0
   12.7592    6.6017   -1.8467 O   0  0  0  0  0  0  0  0  0  0  0  0
   11.3498    7.0093   -2.1591 S   0  0  0  0  0  0  0  0  0  0  0  0
   10.2059    6.1319   -1.7447 O   0  0  0  0  0  0  0  0  0  0  0  0
   10.4319    5.0166   -0.7675 S   0  0  0  0  0  0  0  0  0  0  0  0
   10.2018    3.5946   -1.1859 O   0  0  0  0  0  0  0  0  0  0  0  0
    8.8153    3.1234   -1.5109 S   0  0  0  0  0  0  0  0  0  0  0  0
    8.1479    3.5731   -2.7767 O   0  0  0  0  0  0  0  0  0  0  0  0
    6.6790    3.8774   -2.7829 O   0  0  0  0  0  0  0  0  0  0  0  0
    5.9518    4.0379   -4.0850 O   0  0  0  0  0  0  0  0  0  0  0  0
    5.0252    2.9600   -4.5642 C   0  0  0  0  0  0  0  0  0  0  0  0
    5.1938    2.3822   -5.9381 C   0  0  0  0  0  0  0  0  0  0  0  0
    5.0735    0.9020   -6.1492 O   0  0  0  0  0  0  0  0  0  0  0  0
    5.4556    0.2990   -7.4684 S   0  0  0  0  0  0  0  0  0  0  0  0
    6.8014    0.5888   -8.0638 O   0  0  0  0  0  0  0  0  0  0  0  0
    7.6914   -0.5404   -8.4914 S   0  0  0  0  0  0  0  0  0  0  0  0
   16.3208    7.9462   -0.8336 O   0  0  0  0  0  0  0  0  0  0  0  0
   15.7342    7.2152    0.3375 O   0  0  0  0  0  0  0  0  0  0  0  0
   16.4747    7.1710    1.6413 C   0  0  0  0  0  3  0  0  0  0  0  0
   16.8677    8.4473    2.3242 O   0  0  0  0  0  0  0  0  0  0  0  0
   18.2883    8.6602    2.7561 O   0  0  0  0  0  0  0  0  0  0  0  0
   19.3417    8.9818    1.7378 S   0  0  0  0  0  0  0  0  0  0  0  0
   20.4525    8.0088    1.4746 O   0  0  0  0  0  0  0  0  0  0  0  0
   19.2843   10.2765    0.9826 O   0  0  0  0  0  0  0  0  0  0  0  0
   20.5360   11.0738    0.7645 S   0  0  0  0  0  0  0  0  0  0  0  0
   21.1557   11.8243    1.9058 O   0  0  0  0  0  0  0  0  0  0  0  0
  1  2  1  0
  2  3  1  0
  3  4  1  0
  4  5  1  0
  5  6  1  0
  6  7  1  0
  5  8  1  0
  8  9  1  0
  8 10  1  0
 10 11  1  0
 10 12  1  0
 12 13  1  0
 13 14  1  0
 14 15  1  0
 15 16  1  0
 16 17  1  0
 17 18  1  0
 18 19  1  0
 19 20  1  0
 20 21  1  0
 21 22  1  0
 21 23  1  0
 23 24  1  0
 24 25  1  0
 25 26  1  0
 26 27  1  0
 27 28  1  0
 28 29  1  0
 29 30  1  0
 30 31  1  0
 30 32  1  0
 32 33  1  0
 33 34  1  0
 34 35  1  0
 34 36  1  0
 36 37  1  0
 36 38  1  0
 38 39  1  0
 39 40  1  0
 40 41  1  0
 41 42  1  0
 42 43  1  0
 43 44  1  0
 42 45  1  0
 45 46  1  0
 46 47  1  0
 47 48  1  0
 48 49  1  0
 49 50  1  0
 49 51  1  0
 51 52  1  0
 51 53  1  0
 53 54  1  0
 54 55  1  0
 55 56  1  0
 55 57  1  0
 57 58  1  0
 58 59  1  0
 59 60  1  0
 60 61  1  0
 61 62  1  0
 61 63  1  0
 63 64  1  0
 64 65  1  0
 65 66  1  0
 66 67  1  0
 67 68  1  0
 68 69  1  0
 69 70  1  0
 70 71  1  0
 71 72  1  0
 72 73  1  0
 73 74  1  0
 74 75  1  0
 75 76  1  0
 76 77  1  0
 77 78  1  0
 78 79  1  0
 79 80  1  0
 63 81  1  0
 81 82  1  0
 82 83  1  0
 83 84  1  0
 84 85  1  0
 85 86  1  0
 86 87  1  0
 86 88  1  0
 88 89  1  0
 89 90  1  0
 54  1  1  0
M  RAD  8   3   2  12   2  13   2  19   2  26   2  27   2  40   2  46   2
M  RAD  2  53   2  83   2
M  END
>  <docking_score>  (1) 
160.18299999999999

$$$$
