
     RDKit          3D

 26 29  0  0  0  0  0  0  0  0999 V2000
   13.7882   -6.0047   -5.5096 C   0  0  0  0  0  0  0  0  0  0  0  0
   14.9328   -6.7963   -4.9498 C   0  0  0  0  0  0  0  0  0  0  0  0
   16.3099   -6.2024   -4.9159 C   0  0  0  0  0  0  0  0  0  0  0  0
   16.5422   -4.8170   -5.4417 C   0  0  0  0  0  0  0  0  0  0  0  0
   15.3976   -4.0253   -6.0015 C   0  0  0  0  0  0  0  0  0  0  0  0
   14.0206   -4.6192   -6.0354 C   0  0  0  0  0  0  0  0  0  0  0  0
   15.6300   -2.6399   -6.5274 C   0  0  0  0  0  0  0  0  0  0  0  0
   15.0739   -1.4559   -5.7932 C   0  0  0  0  0  0  0  0  0  0  0  0
   14.8217   -1.5397   -4.3169 C   0  0  0  0  0  3  0  0  0  0  0  0
   15.9757   -1.5575   -3.3588 C   0  0  0  0  0  0  0  0  0  0  0  0
   17.7880   -1.9183   -3.0718 C   0  0  0  0  0  0  0  0  0  0  0  0
   17.9001   -1.9693   -3.1590 C   0  0  0  0  0  0  0  0  0  0  0  0
   19.9205   -3.0601   -5.3579 C   0  0  0  0  0  0  0  0  0  0  0  0
   20.7217   -4.3265   -5.2923 N   0  0  0  0  0  0  0  0  0  0  0  0
   20.0772   -5.6397   -5.6239 C   0  0  0  0  0  0  0  0  0  0  0  0
   19.9337   -6.0647   -7.0553 C   0  0  0  0  0  0  0  0  0  0  0  0
   19.2892   -7.3779   -7.3868 N   0  0  0  0  0  0  0  0  0  0  0  0
   18.6783   -8.2096   -6.2982 N   0  0  0  0  0  0  0  0  0  0  0  0
   17.6082   -9.2077   -6.6277 C   0  0  0  0  0  0  0  0  0  0  0  0
   16.9974  -10.0393   -5.5391 C   0  0  0  0  0  0  0  0  0  0  0  0
   17.4248   -1.9338   -3.4505 C   0  0  0  0  0  0  0  0  0  0  0  0
   18.7465   -2.4003   -3.9850 N   0  0  0  0  0  0  0  0  0  0  0  0
   17.6077   -1.5826   -2.0037 C   0  0  0  0  0  0  0  0  0  0  0  0
   19.0424   -1.8320   -1.6440 C   0  0  0  0  0  0  0  0  0  0  0  0
   19.7462   -2.3374   -2.8684 C   0  0  0  0  0  0  0  0  0  0  0  0
   16.1586   -1.2063   -1.9119 N   0  0  0  0  0  0  0  0  0  0  0  0
  1  2  2  0
  2  3  1  0
  3  4  2  0
  4  5  1  0
  5  6  2  0
  5  7  1  0
  7  8  1  0
  8  9  1  0
  9 10  1  0
 10 11  1  0
 11 12  2  0
 12 13  1  0
 13 14  1  0
 14 15  1  0
 15 16  2  3
 16 17  1  0
 17 18  1  0
 18 19  2  3
 19 20  1  0
 10 21  1  0
 21 22  2  0
 21 23  1  0
 23 24  1  0
 24 25  2  0
 10 26  1  0
  6  1  1  0
 25 12  1  0
 25 22  1  0
 23 26  2  0
M  RAD  1   9   2
M  END
>  <docking_score>  (1) 
-4.6470000000000002

$$$$

     RDKit          3D

 26 29  0  0  0  0  0  0  0  0999 V2000
   20.1272   -2.8151   -7.1216 C   0  0  0  0  0  0  0  0  0  0  0  0
   19.0940   -1.7819   -7.4608 C   0  0  0  0  0  0  0  0  0  0  0  0
   17.6870   -2.2011   -7.7687 C   0  0  0  0  0  0  0  0  0  0  0  0
   17.3133   -3.6534   -7.7375 C   0  0  0  0  0  0  0  0  0  0  0  0
   18.3466   -4.6867   -7.3983 C   0  0  0  0  0  0  0  0  0  0  0  0
   19.7535   -4.2675   -7.0904 C   0  0  0  0  0  0  0  0  0  0  0  0
   17.9728   -6.1390   -7.3671 C   0  0  0  0  0  0  0  0  0  0  0  0
   16.8791   -6.6125   -6.4563 C   0  0  0  0  0  0  0  0  0  0  0  0
   17.2204   -7.2329   -5.1339 C   0  0  0  0  0  3  0  0  0  0  0  0
   18.5338   -6.9253   -4.4779 C   0  0  0  0  0  0  0  0  0  0  0  0
   19.6108   -5.6694   -3.6063 C   0  0  0  0  0  0  0  0  0  0  0  0
   19.5926   -5.5251   -3.5660 C   0  0  0  0  0  0  0  0  0  0  0  0
   18.7547   -2.5267   -2.9225 C   0  0  0  0  0  0  0  0  0  0  0  0
   17.5769   -2.0779   -2.1094 N   0  0  0  0  0  0  0  0  0  0  0  0
   16.2118   -2.0310   -2.7292 C   0  0  0  0  0  0  0  0  0  0  0  0
   16.0371   -2.3522   -4.1840 C   0  0  0  0  0  0  0  0  0  0  0  0
   14.6720   -2.3054   -4.8038 N   0  0  0  0  0  0  0  0  0  0  0  0
   14.3487   -3.1873   -5.9734 N   0  0  0  0  0  0  0  0  0  0  0  0
   13.7850   -4.5585   -5.7456 C   0  0  0  0  0  0  0  0  0  0  0  0
   13.4617   -5.4403   -6.9151 C   0  0  0  0  0  0  0  0  0  0  0  0
   19.1351   -5.7172   -3.8228 C   0  0  0  0  0  0  0  0  0  0  0  0
   19.3186   -4.3294   -3.2840 N   0  0  0  0  0  0  0  0  0  0  0  0
   20.3913   -6.4903   -3.5502 C   0  0  0  0  0  0  0  0  0  0  0  0
   21.3513   -5.5802   -2.8429 C   0  0  0  0  0  0  0  0  0  0  0  0
   20.6883   -4.2447   -2.6784 C   0  0  0  0  0  0  0  0  0  0  0  0
   19.7900   -7.6983   -4.2052 N   0  0  0  0  0  0  0  0  0  0  0  0
  1  2  2  0
  2  3  1  0
  3  4  2  0
  4  5  1  0
  5  6  2  0
  5  7  1  0
  7  8  1  0
  8  9  1  0
  9 10  1  0
 10 11  1  0
 11 12  2  0
 12 13  1  0
 13 14  1  0
 14 15  1  0
 15 16  2  3
 16 17  1  0
 17 18  1  0
 18 19  2  3
 19 20  1  0
 10 21  1  0
 21 22  2  0
 21 23  1  0
 23 24  1  0
 24 25  2  0
 10 26  1  0
  6  1  1  0
 25 12  1  0
 25 22  1  0
 23 26  2  0
M  RAD  1   9   2
M  END
>  <docking_score>  (2) 
-4.3849999999999998

$$$$

     RDKit          3D

 26 29  0  0  0  0  0  0  0  0999 V2000
   15.4008   -0.9721   -6.0698 C   0  0  0  0  0  0  0  0  0  0  0  0
   14.0796   -0.2712   -5.9541 C   0  0  0  0  0  0  0  0  0  0  0  0
   13.4820   -0.0157   -4.6022 C   0  0  0  0  0  0  0  0  0  0  0  0
   14.2055   -0.4611   -3.3661 C   0  0  0  0  0  0  0  0  0  0  0  0
   15.5267   -1.1620   -3.4818 C   0  0  0  0  0  0  0  0  0  0  0  0
   16.1243   -1.4175   -4.8336 C   0  0  0  0  0  0  0  0  0  0  0  0
   16.2502   -1.6074   -2.2456 C   0  0  0  0  0  0  0  0  0  0  0  0
   17.7036   -1.9716   -2.3174 C   0  0  0  0  0  0  0  0  0  0  0  0
   18.1122   -3.4122   -2.4060 C   0  0  0  0  0  3  0  0  0  0  0  0
   17.1672   -4.4259   -2.9801 C   0  0  0  0  0  0  0  0  0  0  0  0
   16.4003   -5.1874   -4.5061 C   0  0  0  0  0  0  0  0  0  0  0  0
   16.4147   -5.1630   -4.6543 C   0  0  0  0  0  0  0  0  0  0  0  0
   17.0431   -4.2947   -7.6473 C   0  0  0  0  0  0  0  0  0  0  0  0
   18.3973   -4.0724   -8.2527 N   0  0  0  0  0  0  0  0  0  0  0  0
   19.6137   -4.6688   -7.6088 C   0  0  0  0  0  0  0  0  0  0  0  0
   19.6821   -6.1464   -7.3593 C   0  0  0  0  0  0  0  0  0  0  0  0
   20.8985   -6.7428   -6.7154 N   0  0  0  0  0  0  0  0  0  0  0  0
   20.8967   -7.0469   -5.2465 N   0  0  0  0  0  0  0  0  0  0  0  0
   21.3819   -8.3787   -4.7557 C   0  0  0  0  0  0  0  0  0  0  0  0
   21.3801   -8.6827   -3.2869 C   0  0  0  0  0  0  0  0  0  0  0  0
   16.7432   -4.8158   -4.3650 C   0  0  0  0  0  0  0  0  0  0  0  0
   16.6219   -4.8641   -5.8593 N   0  0  0  0  0  0  0  0  0  0  0  0
   15.8308   -5.8594   -3.7918 C   0  0  0  0  0  0  0  0  0  0  0  0
   15.1456   -6.5527   -4.9319 C   0  0  0  0  0  0  0  0  0  0  0  0
   15.6345   -5.9376   -6.2097 C   0  0  0  0  0  0  0  0  0  0  0  0
   16.2549   -5.4694   -2.4069 N   0  0  0  0  0  0  0  0  0  0  0  0
  1  2  2  0
  2  3  1  0
  3  4  2  0
  4  5  1  0
  5  6  2  0
  5  7  1  0
  7  8  1  0
  8  9  1  0
  9 10  1  0
 10 11  1  0
 11 12  2  0
 12 13  1  0
 13 14  1  0
 14 15  1  0
 15 16  2  3
 16 17  1  0
 17 18  1  0
 18 19  2  3
 19 20  1  0
 10 21  1  0
 21 22  2  0
 21 23  1  0
 23 24  1  0
 24 25  2  0
 10 26  1  0
  6  1  1  0
 25 12  1  0
 25 22  1  0
 23 26  2  0
M  RAD  1   9   2
M  END
>  <docking_score>  (3) 
-4.2939999999999996

$$$$
