
     RDKit          3D

 29 30  0  0  0  0  0  0  0  0999 V2000
   21.1000   -8.4166   -5.8793 C   0  0  0  0  0  0  0  0  0  0  0  0
   20.4899   -7.7722   -7.0973 C   0  0  0  0  0  0  0  0  0  0  0  0
   19.2056   -7.0591   -6.7463 C   0  0  0  0  0  0  0  0  0  0  0  0
   18.3436   -6.9675   -7.9997 C   0  0  0  0  0  0  0  0  0  0  0  0
   17.0119   -6.4000   -7.6216 C   0  0  0  0  0  0  0  0  0  0  0  0
   16.7758   -5.0803   -8.3167 C   0  0  0  0  0  0  0  0  0  0  0  0
   15.4703   -4.4566   -7.8668 C   0  0  0  0  0  0  0  0  0  0  0  0
   15.5224   -4.2167   -6.3758 C   0  0  0  0  0  0  0  0  0  0  0  0
   14.3653   -5.4354   -8.1642 C   0  0  0  0  0  0  0  0  0  0  0  0
   15.2640   -3.1995   -8.6064 C   0  0  0  0  0  0  0  0  0  0  0  0
   16.2120   -2.2980   -8.6601 C   0  0  0  0  0  0  0  0  0  0  0  0
   17.4928   -2.4779   -8.0101 C   0  0  0  0  0  0  0  0  0  0  0  0
   17.9113   -1.7216   -7.0149 C   0  0  0  0  0  0  0  0  0  0  0  0
   17.0237   -0.6114   -6.5196 C   0  0  0  0  0  0  0  0  0  0  0  0
   19.2305   -1.9630   -6.3942 C   0  0  2  0  0  0  0  0  0  0  0  0
   20.3541   -2.1067   -7.3974 C   0  0  2  0  0  0  0  0  0  0  0  0
   20.2638   -1.3777   -8.5525 O   0  0  0  0  0  0  0  0  0  0  0  0
   21.3822   -0.5914   -8.7392 C   0  0  0  0  0  0  0  0  0  0  0  0
   20.0098   -3.5775   -7.4853 C   0  0  0  0  0  0  0  0  0  0  0  0
   19.4146   -3.4331   -6.0878 C   0  0  1  0  0  0  0  0  0  0  0  0
   20.4280   -3.5825   -5.1422 O   0  0  0  0  0  0  0  0  0  0  0  0
   19.9907   -3.0967   -3.9026 C   0  0  0  0  0  0  0  0  0  0  0  0
   18.5152   -2.8133   -3.9495 C   0  0  0  0  0  0  0  0  0  0  0  0
   17.8018   -2.7595   -2.8590 C   0  0  0  0  0  0  0  0  0  0  0  0
   18.0887   -2.9211   -1.4224 C   0  0  0  0  0  0  0  0  0  0  0  0
   16.4824   -2.5327   -2.5478 O   0  0  0  0  0  0  0  0  0  0  0  0
   16.6496   -3.4246   -1.4439 C   0  0  1  0  0  0  0  0  0  0  0  0
   16.4949   -5.1670   -1.8616 S   0  0  0  0  0  0  0  0  0  0  0  0
   15.7619   -5.2878   -3.5178 C   0  0  0  0  0  0  0  0  0  0  0  0
  1  2  1  0
  2  3  1  0
  3  4  1  0
  4  5  1  0
  5  6  1  0
  6  7  1  0
  7  8  1  0
  7  9  1  0
  7 10  1  0
 10 11  2  3
 11 12  1  0
 12 13  2  3
 13 14  1  0
 15 13  1  6
 15 16  1  0
 16 17  1  6
 17 18  1  0
 16 19  1  0
 19 20  1  0
 20 21  1  1
 21 22  1  0
 22 23  1  0
 23 24  2  3
 24 25  1  0
 24 26  1  0
 26 27  1  0
 27 28  1  6
 28 29  1  0
 20 15  1  0
 27 25  1  0
M  END
>  <docking_score>  (1) 
-2.1000000000000001

$$$$

     RDKit          3D

 29 30  0  0  0  0  0  0  0  0999 V2000
   11.0965   12.8339   12.4644 C   0  0  0  0  0  0  0  0  0  0  0  0
   10.9295   13.9927   11.5156 C   0  0  0  0  0  0  0  0  0  0  0  0
    9.4996   14.4792   11.5020 C   0  0  0  0  0  0  0  0  0  0  0  0
    9.3260   15.4417   10.3333 C   0  0  0  0  0  0  0  0  0  0  0  0
    7.9220   15.9586   10.3464 C   0  0  0  0  0  0  0  0  0  0  0  0
    7.3543   16.0007    8.9476 C   0  0  0  0  0  0  0  0  0  0  0  0
    6.0452   15.2418    8.8708 C   0  0  0  0  0  0  0  0  0  0  0  0
    5.4347   15.1638   10.2509 C   0  0  0  0  0  0  0  0  0  0  0  0
    6.3488   13.8464    8.3931 C   0  0  0  0  0  0  0  0  0  0  0  0
    5.1504   15.9315    7.9256 C   0  0  0  0  0  0  0  0  0  0  0  0
    5.1008   15.5637    6.6700 C   0  0  0  0  0  0  0  0  0  0  0  0
    5.9048   14.4803    6.1456 C   0  0  0  0  0  0  0  0  0  0  0  0
    6.7956   14.6391    5.1871 C   0  0  0  0  0  0  0  0  0  0  0  0
    6.9974   16.0098    4.5990 C   0  0  0  0  0  0  0  0  0  0  0  0
    7.5854   13.4887    4.7007 C   0  0  2  0  0  0  0  0  0  0  0  0
    7.3373   13.1562    3.2456 C   0  0  2  0  0  0  0  0  0  0  0  0
    7.0506   14.1957    2.4023 O   0  0  0  0  0  0  0  0  0  0  0  0
    6.0611   13.8549    1.5030 C   0  0  0  0  0  0  0  0  0  0  0  0
    6.1752   12.2999    3.6995 C   0  0  0  0  0  0  0  0  0  0  0  0
    6.8949   12.1860    5.0401 C   0  0  1  0  0  0  0  0  0  0  0  0
    7.8194   11.1446    4.9749 O   0  0  0  0  0  0  0  0  0  0  0  0
    7.1956    9.9916    4.4794 C   0  0  0  0  0  0  0  0  0  0  0  0
    6.4476    9.2942    5.5810 C   0  0  0  0  0  0  0  0  0  0  0  0
    5.1840    8.9958    5.4570 C   0  0  0  0  0  0  0  0  0  0  0  0
    4.1730    9.1810    4.4008 C   0  0  0  0  0  0  0  0  0  0  0  0
    4.2290    8.3846    6.2338 O   0  0  0  0  0  0  0  0  0  0  0  0
    3.2651    9.2456    5.6242 C   0  0  1  0  0  0  0  0  0  0  0  0
    3.1537   10.8822    6.3614 S   0  0  0  0  0  0  0  0  0  0  0  0
    2.2583   10.7337    7.9334 C   0  0  0  0  0  0  0  0  0  0  0  0
  1  2  1  0
  2  3  1  0
  3  4  1  0
  4  5  1  0
  5  6  1  0
  6  7  1  0
  7  8  1  0
  7  9  1  0
  7 10  1  0
 10 11  2  3
 11 12  1  0
 12 13  2  3
 13 14  1  0
 15 13  1  1
 15 16  1  0
 16 17  1  6
 17 18  1  0
 16 19  1  0
 19 20  1  0
 20 21  1  6
 21 22  1  0
 22 23  1  0
 23 24  2  3
 24 25  1  0
 24 26  1  0
 26 27  1  0
 27 28  1  1
 28 29  1  0
 20 15  1  0
 27 25  1  0
M  END
>  <docking_score>  (2) 
-1.4850000000000001

$$$$

     RDKit          3D

 29 30  0  0  0  0  0  0  0  0999 V2000
    7.1545   11.5294    1.0039 C   0  0  0  0  0  0  0  0  0  0  0  0
    5.8190   11.2018    1.6202 C   0  0  0  0  0  0  0  0  0  0  0  0
    5.3878   12.2823    2.5835 C   0  0  0  0  0  0  0  0  0  0  0  0
    4.2818   11.7264    3.4724 C   0  0  0  0  0  0  0  0  0  0  0  0
    4.4109   10.2365    3.5180 C   0  0  0  0  0  0  0  0  0  0  0  0
    5.2413    9.8074    4.7041 C   0  0  0  0  0  0  0  0  0  0  0  0
    4.3745    9.1688    5.7702 C   0  0  0  0  0  0  0  0  0  0  0  0
    4.7371    9.7482    7.1179 C   0  0  0  0  0  0  0  0  0  0  0  0
    4.6687    7.6921    5.7799 C   0  0  0  0  0  0  0  0  0  0  0  0
    2.9595    9.4146    5.4427 C   0  0  0  0  0  0  0  0  0  0  0  0
    2.2578   10.2757    6.1360 C   0  0  0  0  0  0  0  0  0  0  0  0
    2.8178   11.0223    7.2425 C   0  0  0  0  0  0  0  0  0  0  0  0
    2.8407   12.3394    7.2882 C   0  0  0  0  0  0  0  0  0  0  0  0
    2.2594   13.1191    6.1393 C   0  0  0  0  0  0  0  0  0  0  0  0
    3.4258   13.0383    8.4514 C   0  0  2  0  0  0  0  0  0  0  0  0
    4.5815   13.9468    8.0932 C   0  0  2  0  0  0  0  0  0  0  0  0
    4.5418   14.5642    6.8720 O   0  0  0  0  0  0  0  0  0  0  0  0
    5.8029   14.9426    6.4591 C   0  0  0  0  0  0  0  0  0  0  0  0
    5.4915   12.7451    8.2254 C   0  0  0  0  0  0  0  0  0  0  0  0
    4.4337   12.1546    9.1530 C   0  0  1  0  0  0  0  0  0  0  0  0
    4.6425   12.6318   10.4461 O   0  0  0  0  0  0  0  0  0  0  0  0
    5.1122   13.9510   10.3910 C   0  0  0  0  0  0  0  0  0  0  0  0
    4.8980   14.6321   11.7137 C   0  0  0  0  0  0  0  0  0  0  0  0
    5.5159   14.2298   12.7896 C   0  0  0  0  0  0  0  0  0  0  0  0
    6.4828   13.1595   13.0918 C   0  0  0  0  0  0  0  0  0  0  0  0
    5.5530   14.6067   14.1108 O   0  0  0  0  0  0  0  0  0  0  0  0
    5.7682   13.2321   14.4368 C   0  0  1  0  0  0  0  0  0  0  0  0
    4.2700   12.2406   14.5186 S   0  0  0  0  0  0  0  0  0  0  0  0
    3.2338   12.8927   15.8588 C   0  0  0  0  0  0  0  0  0  0  0  0
  1  2  1  0
  2  3  1  0
  3  4  1  0
  4  5  1  0
  5  6  1  0
  6  7  1  0
  7  8  1  0
  7  9  1  0
  7 10  1  0
 10 11  2  3
 11 12  1  0
 12 13  2  3
 13 14  1  0
 15 13  1  6
 15 16  1  0
 16 17  1  6
 17 18  1  0
 16 19  1  0
 19 20  1  0
 20 21  1  1
 21 22  1  0
 22 23  1  0
 23 24  2  3
 24 25  1  0
 24 26  1  0
 26 27  1  0
 27 28  1  6
 28 29  1  0
 20 15  1  0
 27 25  1  0
M  END
>  <docking_score>  (3) 
-0.40899999999999997

$$$$
