
     RDKit          3D

 13 12  0  0  0  0  0  0  0  0999 V2000
   12.8879   -0.7309   -4.7270 O   0  0  0  0  0  0  0  0  0  0  0  0
   14.1230   -0.6222   -4.5800 C   0  0  0  0  0  0  0  0  0  0  0  0
   14.6577   -0.8658   -3.3314 O   0  0  0  0  0  0  0  0  0  0  0  0
   14.9669   -0.2422   -5.7262 C   0  0  0  0  0  0  0  0  0  0  0  0
   15.5584   -1.4541   -6.3021 C   0  0  0  0  0  0  0  0  0  0  0  0
   15.0252   -2.2153   -7.2179 C   0  0  0  0  0  0  0  0  0  0  0  0
   15.7686   -3.3811   -7.6650 C   0  0  0  0  0  0  0  0  0  0  0  0
   15.6100   -4.5935   -7.2028 C   0  0  0  0  0  0  0  0  0  0  0  0
   16.6946   -5.9841   -7.9329 Br  0  0  0  0  0  0  0  0  0  0  0  0
   14.6469   -4.9925   -6.1445 C   0  0  0  0  0  0  0  0  0  0  0  0
   15.1047   -6.1622   -5.3744 C   0  0  0  0  0  0  0  0  0  0  0  0
   15.7709   -5.9432   -4.2472 C   0  0  0  0  0  0  0  0  0  0  0  0
   16.1572   -4.2021   -3.5882 Br  0  0  0  0  0  0  0  0  0  0  0  0
  1  2  2  0
  2  3  1  0
  2  4  1  0
  4  5  1  0
  5  6  2  3
  6  7  1  0
  7  8  2  3
  8  9  1  0
  8 10  1  0
 10 11  1  0
 11 12  2  3
 12 13  1  0
M  END
>  <docking_score>  (1) 
-3.5510000000000002

$$$$

     RDKit          3D

 13 12  0  0  0  0  0  0  0  0999 V2000
   13.1150   -0.1305   -4.2287 O   0  0  0  0  0  0  0  0  0  0  0  0
   14.0600   -0.4054   -4.9969 C   0  0  0  0  0  0  0  0  0  0  0  0
   14.6885    0.6298   -5.6584 O   0  0  0  0  0  0  0  0  0  0  0  0
   14.4751   -1.8077   -5.1757 C   0  0  0  0  0  0  0  0  0  0  0  0
   15.7539   -2.0150   -4.4886 C   0  0  0  0  0  0  0  0  0  0  0  0
   15.9304   -2.1305   -3.2010 C   0  0  0  0  0  0  0  0  0  0  0  0
   17.2813   -2.3328   -2.7050 C   0  0  0  0  0  0  0  0  0  0  0  0
   17.7356   -3.4510   -2.2031 C   0  0  0  0  0  0  0  0  0  0  0  0
   19.5486   -3.4997   -1.6085 Br  0  0  0  0  0  0  0  0  0  0  0  0
   16.9558   -4.7065   -2.0515 C   0  0  0  0  0  0  0  0  0  0  0  0
   16.3022   -5.1215   -3.3050 C   0  0  0  0  0  0  0  0  0  0  0  0
   16.9718   -5.9295   -4.1182 C   0  0  0  0  0  0  0  0  0  0  0  0
   18.7220   -6.5693   -3.7401 Br  0  0  0  0  0  0  0  0  0  0  0  0
  1  2  2  0
  2  3  1  0
  2  4  1  0
  4  5  1  0
  5  6  2  3
  6  7  1  0
  7  8  2  3
  8  9  1  0
  8 10  1  0
 10 11  1  0
 11 12  2  3
 12 13  1  0
M  END
>  <docking_score>  (2) 
-3.4239999999999999

$$$$

     RDKit          3D

 13 12  0  0  0  0  0  0  0  0999 V2000
   19.7213   -1.5165   -2.9952 O   0  0  0  0  0  0  0  0  0  0  0  0
   18.9127   -2.1064   -2.2489 C   0  0  0  0  0  0  0  0  0  0  0  0
   17.6524   -1.5664   -2.0924 O   0  0  0  0  0  0  0  0  0  0  0  0
   19.3176   -3.3461   -1.5637 C   0  0  0  0  0  0  0  0  0  0  0  0
   19.1649   -4.4720   -2.4909 C   0  0  0  0  0  0  0  0  0  0  0  0
   18.0990   -5.2086   -2.6444 C   0  0  0  0  0  0  0  0  0  0  0  0
   18.1392   -6.2859   -3.6190 C   0  0  0  0  0  0  0  0  0  0  0  0
   17.1797   -6.5725   -4.4591 C   0  0  0  0  0  0  0  0  0  0  0  0
   17.4401   -8.0344   -5.6582 Br  0  0  0  0  0  0  0  0  0  0  0  0
   15.8851   -5.8517   -4.5662 C   0  0  0  0  0  0  0  0  0  0  0  0
   15.6147   -5.3740   -5.9335 C   0  0  0  0  0  0  0  0  0  0  0  0
   15.2780   -4.0997   -6.0923 C   0  0  0  0  0  0  0  0  0  0  0  0
   15.1304   -2.8744   -4.6460 Br  0  0  0  0  0  0  0  0  0  0  0  0
  1  2  2  0
  2  3  1  0
  2  4  1  0
  4  5  1  0
  5  6  2  3
  6  7  1  0
  7  8  2  3
  8  9  1  0
  8 10  1  0
 10 11  1  0
 11 12  2  3
 12 13  1  0
M  END
>  <docking_score>  (3) 
-3.254

$$$$
