
     RDKit          3D

 14 14  0  0  0  0  0  0  0  0999 V2000
   18.2432   -5.5554   -2.8465 C   0  0  0  0  0  0  0  0  0  0  0  0
   18.1156   -4.3407   -2.2347 O   0  0  0  0  0  0  0  0  0  0  0  0
   18.9618   -3.3642   -1.9370 C   0  0  0  0  0  0  0  0  0  0  0  0
   19.9244   -3.4544   -0.9547 C   0  0  0  0  0  0  0  0  0  0  0  0
   20.7665   -2.4271   -0.7005 C   0  0  0  0  0  0  0  0  0  0  0  0
   20.7292   -1.2482   -1.3878 C   0  0  0  0  0  0  0  0  0  0  0  0
   19.7623   -1.1452   -2.3788 C   0  0  0  0  0  0  0  0  0  0  0  0
   18.8935   -2.1387   -2.6696 C   0  0  0  0  0  0  0  0  0  0  0  0
   17.5894   -1.9832   -3.7990 S   0  0  0  0  0  0  0  0  0  0  0  0
   16.5196   -1.8753   -4.7053 C   0  0  0  0  0  0  0  0  0  0  0  0
   15.5044   -1.7622   -5.5402 N   0  0  0  0  0  0  0  0  0  0  0  0
   14.7792   -0.6954   -6.0306 C   0  0  0  0  0  0  0  0  0  0  0  0
   13.9867    0.1133   -5.3931 C   0  0  0  0  0  0  0  0  0  0  0  0
   13.7736   -0.0536   -3.9044 C   0  0  0  0  0  0  0  0  0  0  0  0
  1  2  1  0
  2  3  1  0
  3  4  2  0
  4  5  1  0
  5  6  2  0
  6  7  1  0
  7  8  2  0
  8  9  1  0
  9 10  3  0
 10 11  1  0
 11 12  1  0
 12 13  2  3
 13 14  1  0
  8  3  1  0
M  END
>  <docking_score>  (1) 
-4.2510000000000003

$$$$

     RDKit          3D

 14 14  0  0  0  0  0  0  0  0999 V2000
   14.5068   -1.3197   -4.6435 C   0  0  0  0  0  0  0  0  0  0  0  0
   15.2236   -2.3924   -5.0924 O   0  0  0  0  0  0  0  0  0  0  0  0
   15.0301   -3.7041   -5.0743 C   0  0  0  0  0  0  0  0  0  0  0  0
   13.9585   -4.3310   -5.6730 C   0  0  0  0  0  0  0  0  0  0  0  0
   13.8172   -5.6753   -5.6289 C   0  0  0  0  0  0  0  0  0  0  0  0
   14.7109   -6.4962   -5.0033 C   0  0  0  0  0  0  0  0  0  0  0  0
   15.7937   -5.8757   -4.3952 C   0  0  0  0  0  0  0  0  0  0  0  0
   15.9797   -4.5370   -4.4053 C   0  0  0  0  0  0  0  0  0  0  0  0
   17.2406   -3.7293   -3.5347 S   0  0  0  0  0  0  0  0  0  0  0  0
   18.2516   -3.0532   -2.8289 C   0  0  0  0  0  0  0  0  0  0  0  0
   19.1884   -2.4218   -2.1474 N   0  0  0  0  0  0  0  0  0  0  0  0
   19.9362   -2.7318   -1.0298 C   0  0  0  0  0  0  0  0  0  0  0  0
   20.8806   -3.6151   -0.9002 C   0  0  0  0  0  0  0  0  0  0  0  0
   21.2921   -4.4616   -2.0849 C   0  0  0  0  0  0  0  0  0  0  0  0
  1  2  1  0
  2  3  1  0
  3  4  2  0
  4  5  1  0
  5  6  2  0
  6  7  1  0
  7  8  2  0
  8  9  1  0
  9 10  3  0
 10 11  1  0
 11 12  1  0
 12 13  2  3
 13 14  1  0
  8  3  1  0
M  END
>  <docking_score>  (2) 
-4.2069999999999999

$$$$

     RDKit          3D

 14 14  0  0  0  0  0  0  0  0999 V2000
   19.8116   -4.6829   -2.6551 C   0  0  0  0  0  0  0  0  0  0  0  0
   18.7481   -5.5365   -2.7346 O   0  0  0  0  0  0  0  0  0  0  0  0
   18.3302   -6.4077   -3.6427 C   0  0  0  0  0  0  0  0  0  0  0  0
   18.9772   -7.5911   -3.9270 C   0  0  0  0  0  0  0  0  0  0  0  0
   18.4991   -8.4461   -4.8595 C   0  0  0  0  0  0  0  0  0  0  0  0
   17.3595   -8.2071   -5.5721 C   0  0  0  0  0  0  0  0  0  0  0  0
   16.7001   -7.0171   -5.2953 C   0  0  0  0  0  0  0  0  0  0  0  0
   17.1372   -6.1262   -4.3779 C   0  0  0  0  0  0  0  0  0  0  0  0
   16.4147   -4.5736   -4.1168 S   0  0  0  0  0  0  0  0  0  0  0  0
   15.8486   -3.3057   -3.8948 C   0  0  0  0  0  0  0  0  0  0  0  0
   15.3275   -2.1086   -3.7054 N   0  0  0  0  0  0  0  0  0  0  0  0
   14.5695   -1.2577   -4.4837 C   0  0  0  0  0  0  0  0  0  0  0  0
   14.7380   -0.9239   -5.7282 C   0  0  0  0  0  0  0  0  0  0  0  0
   15.8915   -1.5038   -6.5173 C   0  0  0  0  0  0  0  0  0  0  0  0
  1  2  1  0
  2  3  1  0
  3  4  2  0
  4  5  1  0
  5  6  2  0
  6  7  1  0
  7  8  2  0
  8  9  1  0
  9 10  3  0
 10 11  1  0
 11 12  1  0
 12 13  2  3
 13 14  1  0
  8  3  1  0
M  END
>  <docking_score>  (3) 
-4.1020000000000003

$$$$
