
     RDKit          3D

 25 26  0  0  0  0  0  0  0  0999 V2000
    2.8862    7.4218    5.4762 C   0  0  0  0  0  0  0  0  0  0  0  0
    3.1886    8.9070    5.6408 C   0  0  1  0  0  0  0  0  0  0  0  0
    4.1836    9.0147    6.7912 C   0  0  0  0  0  0  0  0  0  0  0  0
    4.9626   10.2931    6.7168 C   0  0  2  0  0  0  0  0  0  0  0  0
    4.1973   11.4120    6.9513 O   0  0  0  0  0  0  0  0  0  0  0  0
    5.7783   10.4004    5.4517 C   0  0  2  0  0  0  0  0  0  0  0  0
    5.6168   11.6188    4.8347 O   0  0  0  0  0  0  0  0  0  0  0  0
    5.3388    9.2495    4.5512 C   0  0  1  0  0  0  0  0  0  0  0  0
    5.6792    8.0421    5.1193 O   0  0  0  0  0  0  0  0  0  0  0  0
    3.8364    9.4061    4.3709 C   0  0  1  0  0  0  0  0  0  0  0  0
    3.4511    8.5882    3.2206 N   0  0  0  0  0  0  0  0  0  0  0  0
    3.7740    9.3624    2.0348 C   0  0  0  0  0  3  0  0  0  0  0  0
    5.2669    9.5411    1.8650 C   0  0  0  0  0  0  0  0  0  0  0  0
    5.7400   10.8896    2.2007 C   0  0  0  0  0  3  0  0  0  0  0  0
    4.8314   11.8920    2.2551 O   0  0  0  0  0  0  0  0  0  0  0  0
    6.8465   10.9907    2.9837 O   0  0  0  0  0  0  0  0  0  0  0  0
    6.6659   11.9412    3.9825 C   0  0  1  0  0  0  0  0  0  0  0  0
    6.3627   13.2563    3.3211 C   0  0  1  0  0  0  0  0  0  0  0  0
    5.6868   14.0549    4.2254 O   0  0  0  0  0  0  0  0  0  0  0  0
    7.6328   13.9327    2.8398 C   0  0  2  0  0  0  0  0  0  0  0  0
    7.7464   13.7921    1.4653 O   0  0  0  0  0  0  0  0  0  0  0  0
    8.8474   13.4222    3.5644 C   0  0  0  0  0  3  0  0  0  0  0  0
    9.5544   14.5776    4.1954 C   0  0  0  0  0  0  0  0  0  0  0  0
   10.8717   14.9016    3.5681 C   0  0  0  0  0  3  0  0  0  0  0  0
   11.6729   15.5015    4.5370 O   0  0  0  0  0  0  0  0  0  0  0  0
  2  1  1  6
  2  3  1  0
  3  4  1  0
  4  5  1  6
  4  6  1  0
  6  7  1  6
  6  8  1  0
  8  9  1  1
  8 10  1  0
 10 11  1  6
 11 12  1  0
 12 13  1  0
 13 14  1  0
 14 15  1  0
 14 16  1  0
 17 16  1  6
 17 18  1  0
 18 19  1  1
 18 20  1  0
 20 21  1  6
 20 22  1  0
 22 23  1  0
 23 24  1  0
 24 25  1  0
 10  2  1  0
 17  7  1  0
M  RAD  4  12   2  14   2  22   2  24   2
M  END
>  <docking_score>  (1) 
-4.4660000000000002

$$$$

     RDKit          3D

 25 26  0  0  0  0  0  0  0  0999 V2000
   20.4490    0.2656   -2.6095 C   0  0  0  0  0  0  0  0  0  0  0  0
   20.0772   -0.6202   -3.7933 C   0  0  1  0  0  0  0  0  0  0  0  0
   21.3574   -1.3374   -4.2079 C   0  0  0  0  0  0  0  0  0  0  0  0
   21.0538   -2.5959   -4.9633 C   0  0  2  0  0  0  0  0  0  0  0  0
   20.4915   -2.3682   -6.1980 O   0  0  0  0  0  0  0  0  0  0  0  0
   20.2699   -3.5892   -4.1409 C   0  0  2  0  0  0  0  0  0  0  0  0
   19.1891   -4.0901   -4.8282 O   0  0  0  0  0  0  0  0  0  0  0  0
   19.8418   -2.8609   -2.8701 C   0  0  1  0  0  0  0  0  0  0  0  0
   20.9447   -2.5312   -2.1144 O   0  0  0  0  0  0  0  0  0  0  0  0
   19.0622   -1.6375   -3.3283 C   0  0  1  0  0  0  0  0  0  0  0  0
   18.3087   -1.1474   -2.1739 N   0  0  0  0  0  0  0  0  0  0  0  0
   17.1258   -1.9834   -2.0658 C   0  0  0  0  0  3  0  0  0  0  0  0
   17.4721   -3.4077   -1.6907 C   0  0  0  0  0  0  0  0  0  0  0  0
   17.3631   -4.3536   -2.8080 C   0  0  0  0  0  3  0  0  0  0  0  0
   16.6469   -3.9810   -3.8949 O   0  0  0  0  0  0  0  0  0  0  0  0
   18.3843   -5.2322   -2.9896 O   0  0  0  0  0  0  0  0  0  0  0  0
   18.7441   -5.3087   -4.3306 C   0  0  1  0  0  0  0  0  0  0  0  0
   17.5330   -5.7350   -5.1117 C   0  0  1  0  0  0  0  0  0  0  0  0
   17.7015   -5.3441   -6.4273 O   0  0  0  0  0  0  0  0  0  0  0  0
   17.3167   -7.2335   -5.0119 C   0  0  2  0  0  0  0  0  0  0  0  0
   18.1433   -7.8871   -5.9128 O   0  0  0  0  0  0  0  0  0  0  0  0
   15.8711   -7.6035   -5.1973 C   0  0  0  0  0  3  0  0  0  0  0  0
   15.0181   -6.4764   -4.7125 C   0  0  0  0  0  0  0  0  0  0  0  0
   13.9712   -6.0423   -5.6869 C   0  0  0  0  0  3  0  0  0  0  0  0
   14.2310   -4.7187   -6.0351 O   0  0  0  0  0  0  0  0  0  0  0  0
  2  1  1  1
  2  3  1  0
  3  4  1  0
  4  5  1  6
  4  6  1  0
  6  7  1  6
  6  8  1  0
  8  9  1  6
  8 10  1  0
 10 11  1  1
 11 12  1  0
 12 13  1  0
 13 14  1  0
 14 15  1  0
 14 16  1  0
 17 16  1  1
 17 18  1  0
 18 19  1  6
 18 20  1  0
 20 21  1  6
 20 22  1  0
 22 23  1  0
 23 24  1  0
 24 25  1  0
 10  2  1  0
 17  7  1  0
M  RAD  4  12   2  14   2  22   2  24   2
M  END
>  <docking_score>  (2) 
-3.9710000000000001

$$$$
