
     RDKit          3D

  9  9  0  0  0  0  0  0  0  0999 V2000
    6.3888   -1.9918   -5.4873 C   0  0  0  0  0  0  0  0  0  0  0  0
    7.1986   -1.0847   -4.8034 O   0  0  0  0  0  0  0  0  0  0  0  0
    7.0504    0.2023   -5.3299 C   0  0  0  0  0  3  0  0  0  0  0  0
    7.4896    0.1679   -6.6588 O   0  0  0  0  0  0  0  0  0  0  0  0
    6.6483    0.9326   -7.4536 C   0  0  2  0  0  0  0  0  0  0  0  0
    5.9961    2.0352   -6.6652 C   0  0  0  0  0  0  0  0  0  0  0  0
    5.6226    0.0974   -8.1692 C   0  0  0  0  0  3  0  0  0  0  0  0
    5.7162   -1.3099   -7.5901 C   0  0  0  0  0  3  0  0  0  0  0  0
    5.4225   -1.2895   -6.2193 O   0  0  0  0  0  0  0  0  0  0  0  0
  1  2  1  0
  2  3  1  0
  3  4  1  0
  4  5  1  0
  5  6  1  1
  5  7  1  0
  7  8  1  0
  8  9  1  0
  9  1  1  0
M  RAD  3   3   2   7   2   8   2
M  END
>  <docking_score>  (1) 
-4.2919999999999998

$$$$

     RDKit          3D

  9  9  0  0  0  0  0  0  0  0999 V2000
    6.4802    1.0769   -7.3690 C   0  0  0  0  0  0  0  0  0  0  0  0
    6.0407    0.2647   -8.4149 O   0  0  0  0  0  0  0  0  0  0  0  0
    5.6336   -0.9830   -7.9319 C   0  0  0  0  0  3  0  0  0  0  0  0
    6.7535   -1.6015   -7.3633 O   0  0  0  0  0  0  0  0  0  0  0  0
    6.3892   -2.2547   -6.1950 C   0  0  2  0  0  0  0  0  0  0  0  0
    4.9461   -2.6782   -6.2267 C   0  0  0  0  0  0  0  0  0  0  0  0
    6.6886   -1.4394   -4.9672 C   0  0  0  0  0  3  0  0  0  0  0  0
    7.0924   -0.0497   -5.4469 C   0  0  0  0  0  3  0  0  0  0  0  0
    6.0361    0.5449   -6.1515 O   0  0  0  0  0  0  0  0  0  0  0  0
  1  2  1  0
  2  3  1  0
  3  4  1  0
  4  5  1  0
  5  6  1  6
  5  7  1  0
  7  8  1  0
  8  9  1  0
  9  1  1  0
M  RAD  3   3   2   7   2   8   2
M  END
>  <docking_score>  (2) 
-4.0419999999999998

$$$$

     RDKit          3D

  9  9  0  0  0  0  0  0  0  0999 V2000
   15.3771   -2.9908   -4.2711 C   0  0  0  0  0  0  0  0  0  0  0  0
   15.6274   -1.8922   -3.4482 O   0  0  0  0  0  0  0  0  0  0  0  0
   16.7502   -2.1226   -2.6471 C   0  0  0  0  0  3  0  0  0  0  0  0
   16.4597   -3.2111   -1.8159 O   0  0  0  0  0  0  0  0  0  0  0  0
   17.5733   -4.0309   -1.7058 C   0  0  2  0  0  0  0  0  0  0  0  0
   18.8490   -3.2573   -1.8976 C   0  0  0  0  0  0  0  0  0  0  0  0
   17.5090   -5.2106   -2.6365 C   0  0  0  0  0  3  0  0  0  0  0  0
   16.3218   -4.9774   -3.5643 C   0  0  0  0  0  3  0  0  0  0  0  0
   16.5147   -3.8073   -4.3123 O   0  0  0  0  0  0  0  0  0  0  0  0
  1  2  1  0
  2  3  1  0
  3  4  1  0
  4  5  1  0
  5  6  1  6
  5  7  1  0
  7  8  1  0
  8  9  1  0
  9  1  1  0
M  RAD  3   3   2   7   2   8   2
M  END
>  <docking_score>  (3) 
-3.2530000000000001

$$$$
