
     RDKit          3D

 24 25  0  0  0  0  0  0  0  0999 V2000
   14.3852   -2.0467   -4.8112 C   0  0  0  0  0  0  0  0  0  0  0  0
   15.4303   -3.1343   -4.6677 C   0  0  1  0  0  0  0  0  0  0  0  0
   14.9443   -4.4408   -5.2382 C   0  0  0  0  0  0  0  0  0  0  0  0
   14.5458   -4.2860   -6.6905 C   0  0  2  0  0  0  0  0  0  0  0  0
   14.7818   -5.4284   -7.4368 O   0  0  0  0  0  0  0  0  0  0  0  0
   15.2228   -3.1218   -7.3577 C   0  0  2  0  0  0  0  0  0  0  0  0
   15.3325   -3.3393   -8.7396 O   0  0  0  0  0  0  0  0  0  0  0  0
   16.6256   -2.8972   -6.8431 C   0  0  1  0  0  0  0  0  0  0  0  0
   17.1922   -1.9097   -7.5744 O   0  0  0  0  0  0  0  0  0  0  0  0
   16.7058   -2.7545   -5.3615 C   0  0  1  0  0  0  0  0  0  0  0  0
   17.2026   -1.5294   -4.8710 N   0  0  0  0  0  0  0  0  0  0  0  0
   18.3530   -1.5752   -3.9986 C   0  0  1  0  0  0  0  0  0  0  0  0
   18.8062   -2.9898   -3.8012 C   0  0  0  0  0  0  0  0  0  0  0  0
   20.0108   -3.0383   -2.9004 C   0  0  0  0  0  3  0  0  0  0  0  0
   21.2151   -2.9512   -3.5724 O   0  0  0  0  0  0  0  0  0  0  0  0
   19.8991   -2.0694   -1.7600 C   0  0  1  0  0  0  0  0  0  0  0  0
   20.9183   -2.3005   -0.8489 O   0  0  0  0  0  0  0  0  0  0  0  0
   19.8796   -0.6289   -2.1925 C   0  0  1  0  0  0  0  0  0  0  0  0
   20.4944    0.2256   -1.3004 O   0  0  0  0  0  0  0  0  0  0  0  0
   20.4311   -0.3966   -3.5642 C   0  0  2  0  0  0  0  0  0  0  0  0
   20.6554    0.9757   -3.7108 O   0  0  0  0  0  0  0  0  0  0  0  0
   19.4811   -0.7968   -4.6894 C   0  0  1  0  0  0  0  0  0  0  0  0
   20.0732   -1.6929   -5.5906 O   0  0  0  0  0  0  0  0  0  0  0  0
   20.4236   -1.0692   -6.7003 O   0  0  0  0  0  0  0  0  0  0  0  0
  2  1  1  6
  2  3  1  0
  3  4  1  0
  4  5  1  6
  4  6  1  0
  6  7  1  6
  6  8  1  0
  8  9  1  6
  8 10  1  0
 10 11  1  6
 12 11  1  6
 12 13  1  0
 13 14  1  0
 14 15  1  0
 14 16  1  0
 16 17  1  1
 16 18  1  0
 18 19  1  1
 18 20  1  0
 20 21  1  6
 20 22  1  0
 22 23  1  6
 23 24  1  0
 10  2  1  0
 22 12  1  0
M  RAD  1  14   2
M  END
>  <docking_score>  (1) 
-4.4939999999999998

$$$$

     RDKit          3D

 24 25  0  0  0  0  0  0  0  0999 V2000
    2.5702   10.9207    6.8455 C   0  0  0  0  0  0  0  0  0  0  0  0
    4.0393   10.7912    7.1929 C   0  0  1  0  0  0  0  0  0  0  0  0
    4.2280   10.2650    8.5915 C   0  0  0  0  0  0  0  0  0  0  0  0
    3.5282    8.9347    8.7717 C   0  0  2  0  0  0  0  0  0  0  0  0
    4.1857    8.0976    9.6575 O   0  0  0  0  0  0  0  0  0  0  0  0
    3.3253    8.2046    7.4737 C   0  0  2  0  0  0  0  0  0  0  0  0
    3.2561    6.8201    7.6907 O   0  0  0  0  0  0  0  0  0  0  0  0
    4.4577    8.4329    6.4996 C   0  0  1  0  0  0  0  0  0  0  0  0
    4.2463    7.6536    5.4138 O   0  0  0  0  0  0  0  0  0  0  0  0
    4.7427    9.8723    6.2373 C   0  0  1  0  0  0  0  0  0  0  0  0
    4.5906   10.3140    4.9068 N   0  0  0  0  0  0  0  0  0  0  0  0
    5.5712   11.2424    4.3938 C   0  0  1  0  0  0  0  0  0  0  0  0
    6.4079   10.5906    3.3353 C   0  0  0  0  0  0  0  0  0  0  0  0
    7.4235   11.5597    2.7928 C   0  0  0  0  0  3  0  0  0  0  0  0
    6.9739   12.2936    1.7117 O   0  0  0  0  0  0  0  0  0  0  0  0
    8.0239   12.4087    3.8747 C   0  0  1  0  0  0  0  0  0  0  0  0
    9.0957   13.1257    3.3653 O   0  0  0  0  0  0  0  0  0  0  0  0
    7.0337   13.3224    4.5434 C   0  0  1  0  0  0  0  0  0  0  0  0
    7.5732   14.5292    4.9392 O   0  0  0  0  0  0  0  0  0  0  0  0
    5.7949   13.5707    3.7415 C   0  0  2  0  0  0  0  0  0  0  0  0
    5.1274   14.6610    4.3076 O   0  0  0  0  0  0  0  0  0  0  0  0
    4.8049   12.4093    3.7557 C   0  0  1  0  0  0  0  0  0  0  0  0
    4.4637   11.9867    2.4633 O   0  0  0  0  0  0  0  0  0  0  0  0
    3.2853   12.4693    2.1147 O   0  0  0  0  0  0  0  0  0  0  0  0
  2  1  1  6
  2  3  1  0
  3  4  1  0
  4  5  1  1
  4  6  1  0
  6  7  1  1
  6  8  1  0
  8  9  1  6
  8 10  1  0
 10 11  1  6
 12 11  1  6
 12 13  1  0
 13 14  1  0
 14 15  1  0
 14 16  1  0
 16 17  1  6
 16 18  1  0
 18 19  1  6
 18 20  1  0
 20 21  1  1
 20 22  1  0
 22 23  1  6
 23 24  1  0
 10  2  1  0
 22 12  1  0
M  RAD  1  14   2
M  END
>  <docking_score>  (2) 
-4.4630000000000001

$$$$

     RDKit          3D

 24 25  0  0  0  0  0  0  0  0999 V2000
   20.1722   -7.4889   -3.8518 C   0  0  0  0  0  0  0  0  0  0  0  0
   19.8543   -6.5629   -5.0081 C   0  0  1  0  0  0  0  0  0  0  0  0
   20.0143   -7.2633   -6.3318 C   0  0  0  0  0  0  0  0  0  0  0  0
   19.1476   -8.5027   -6.4002 C   0  0  2  0  0  0  0  0  0  0  0  0
   18.6864   -8.7657   -7.6792 O   0  0  0  0  0  0  0  0  0  0  0  0
   17.9737   -8.4430   -5.4636 C   0  0  2  0  0  0  0  0  0  0  0  0
   16.9193   -9.2362   -5.9411 O   0  0  0  0  0  0  0  0  0  0  0  0
   17.4264   -7.0428   -5.3122 C   0  0  1  0  0  0  0  0  0  0  0  0
   16.3119   -7.1037   -4.5471 O   0  0  0  0  0  0  0  0  0  0  0  0
   18.4516   -6.0377   -4.9113 C   0  0  1  0  0  0  0  0  0  0  0  0
   18.2426   -5.3778   -3.6829 N   0  0  0  0  0  0  0  0  0  0  0  0
   17.5905   -4.0893   -3.7181 C   0  0  1  0  0  0  0  0  0  0  0  0
   16.7937   -3.8699   -2.4682 C   0  0  0  0  0  0  0  0  0  0  0  0
   16.1217   -2.5236   -2.4990 C   0  0  0  0  0  3  0  0  0  0  0  0
   16.8846   -1.5056   -1.9594 O   0  0  0  0  0  0  0  0  0  0  0  0
   15.5786   -2.1977   -3.8594 C   0  0  1  0  0  0  0  0  0  0  0  0
   14.7895   -1.0600   -3.7872 O   0  0  0  0  0  0  0  0  0  0  0  0
   16.6416   -2.0499   -4.9133 C   0  0  1  0  0  0  0  0  0  0  0  0
   16.3421   -1.1051   -5.8734 O   0  0  0  0  0  0  0  0  0  0  0  0
   18.0098   -1.7872   -4.3668 C   0  0  2  0  0  0  0  0  0  0  0  0
   18.8186   -1.3544   -5.4221 O   0  0  0  0  0  0  0  0  0  0  0  0
   18.6916   -3.0220   -3.7846 C   0  0  1  0  0  0  0  0  0  0  0  0
   19.1152   -2.8212   -2.4633 O   0  0  0  0  0  0  0  0  0  0  0  0
   20.1939   -2.0605   -2.4338 O   0  0  0  0  0  0  0  0  0  0  0  0
  2  1  1  1
  2  3  1  0
  3  4  1  0
  4  5  1  6
  4  6  1  0
  6  7  1  6
  6  8  1  0
  8  9  1  1
  8 10  1  0
 10 11  1  1
 12 11  1  1
 12 13  1  0
 13 14  1  0
 14 15  1  0
 14 16  1  0
 16 17  1  1
 16 18  1  0
 18 19  1  6
 18 20  1  0
 20 21  1  6
 20 22  1  0
 22 23  1  1
 23 24  1  0
 10  2  1  0
 22 12  1  0
M  RAD  1  14   2
M  END
>  <docking_score>  (3) 
-4.3760000000000003

$$$$
