
     RDKit          3D

 20 19  0  0  0  0  0  0  0  0999 V2000
   13.4900   -5.2038   -5.8416 C   0  0  0  0  0  0  0  0  0  0  0  0
   14.8208   -5.6375   -6.3701 C   0  0  0  0  0  0  0  0  0  0  0  0
   14.8726   -5.2704   -7.8482 C   0  0  0  0  0  0  0  0  0  0  0  0
   15.9728   -4.9325   -5.6848 C   0  0  0  0  0  0  0  0  0  0  0  0
   16.4432   -5.7484   -4.5023 C   0  0  0  0  0  0  0  0  0  0  0  0
   16.3414   -4.8526   -3.2723 C   0  0  0  0  0  0  0  0  0  0  0  0
   17.5213   -5.1538   -2.3579 C   0  0  1  0  0  0  0  0  0  0  0  0
   18.6547   -5.6746   -3.1975 C   0  0  0  0  0  0  0  0  0  0  0  0
   17.9133   -3.8713   -1.7023 C   0  0  0  0  0  3  0  0  0  0  0  0
   17.4519   -2.6604   -2.4389 C   0  0  0  0  0  0  0  0  0  0  0  0
   18.5674   -1.8310   -2.9469 C   0  0  0  0  0  0  0  0  0  0  0  0
   19.0523   -2.0797   -4.3159 C   0  0  2  0  0  0  0  0  0  0  0  0
   20.4382   -2.6119   -4.4091 C   0  0  0  0  0  0  0  0  0  0  0  0
   18.7336   -0.9634   -5.2408 C   0  0  0  0  0  0  0  0  0  0  0  0
   17.6979   -1.2620   -6.2680 C   0  0  1  0  0  0  0  0  0  0  0  0
   18.3373   -2.4085   -7.5260 S   0  0  0  0  0  0  0  0  0  0  0  0
   16.3964   -1.7411   -5.6914 C   0  0  0  0  0  0  0  0  0  0  0  0
   15.3644   -0.6610   -5.7807 C   0  0  0  0  0  0  0  0  0  0  0  0
   14.0842   -1.0647   -5.0928 C   0  0  0  0  0  0  0  0  0  0  0  0
   14.2256   -2.3408   -4.5756 F   0  0  0  0  0  0  0  0  0  0  0  0
  1  2  1  0
  2  3  1  0
  2  4  1  0
  4  5  1  0
  5  6  1  0
  6  7  1  0
  7  8  1  6
  7  9  1  0
  9 10  1  0
 10 11  1  0
 11 12  1  0
 12 13  1  1
 12 14  1  0
 14 15  1  0
 15 16  1  6
 15 17  1  0
 17 18  1  0
 18 19  1  0
 19 20  1  0
M  RAD  1   9   2
M  END
>  <docking_score>  (1) 
-3.6549999999999998

$$$$

     RDKit          3D

 20 19  0  0  0  0  0  0  0  0999 V2000
   19.4382   -1.2378   -1.7134 C   0  0  0  0  0  0  0  0  0  0  0  0
   20.5678   -2.2144   -1.6221 C   0  0  0  0  0  0  0  0  0  0  0  0
   20.2469   -3.1877   -0.4943 C   0  0  0  0  0  0  0  0  0  0  0  0
   20.7348   -3.0255   -2.8902 C   0  0  0  0  0  0  0  0  0  0  0  0
   19.3962   -3.1921   -3.5727 C   0  0  0  0  0  0  0  0  0  0  0  0
   18.8244   -4.5296   -3.1146 C   0  0  0  0  0  0  0  0  0  0  0  0
   19.4366   -5.6328   -3.9674 C   0  0  1  0  0  0  0  0  0  0  0  0
   18.6852   -6.9089   -3.7076 C   0  0  0  0  0  0  0  0  0  0  0  0
   19.2830   -5.2265   -5.3955 C   0  0  0  0  0  3  0  0  0  0  0  0
   18.6501   -6.2730   -6.2478 C   0  0  0  0  0  0  0  0  0  0  0  0
   17.9462   -5.7148   -7.4238 C   0  0  0  0  0  0  0  0  0  0  0  0
   16.4953   -5.9441   -7.5402 C   0  0  2  0  0  0  0  0  0  0  0  0
   15.8115   -5.1471   -8.5936 C   0  0  0  0  0  0  0  0  0  0  0  0
   15.8187   -5.9703   -6.2194 C   0  0  0  0  0  0  0  0  0  0  0  0
   15.0988   -4.7215   -5.8465 C   0  0  1  0  0  0  0  0  0  0  0  0
   13.3008   -4.9896   -5.8123 S   0  0  0  0  0  0  0  0  0  0  0  0
   15.5909   -4.0988   -4.5714 C   0  0  0  0  0  0  0  0  0  0  0  0
   15.9412   -2.6620   -4.8011 C   0  0  0  0  0  0  0  0  0  0  0  0
   14.9767   -1.7409   -4.0966 C   0  0  0  0  0  0  0  0  0  0  0  0
   15.4271   -1.5050   -2.8091 F   0  0  0  0  0  0  0  0  0  0  0  0
  1  2  1  0
  2  3  1  0
  2  4  1  0
  4  5  1  0
  5  6  1  0
  6  7  1  0
  7  8  1  6
  7  9  1  0
  9 10  1  0
 10 11  1  0
 11 12  1  0
 12 13  1  6
 12 14  1  0
 14 15  1  0
 15 16  1  1
 15 17  1  0
 17 18  1  0
 18 19  1  0
 19 20  1  0
M  RAD  1   9   2
M  END
>  <docking_score>  (2) 
-2.8919999999999999

$$$$

     RDKit          3D

 20 19  0  0  0  0  0  0  0  0999 V2000
   19.1479   -3.9887   -6.5018 C   0  0  0  0  0  0  0  0  0  0  0  0
   20.1427   -2.9371   -6.1237 C   0  0  0  0  0  0  0  0  0  0  0  0
   20.7793   -2.4204   -7.4083 C   0  0  0  0  0  0  0  0  0  0  0  0
   19.4993   -1.7563   -5.4269 C   0  0  0  0  0  0  0  0  0  0  0  0
   20.2851   -1.4032   -4.1846 C   0  0  0  0  0  0  0  0  0  0  0  0
   20.0984   -2.5499   -3.1968 C   0  0  0  0  0  0  0  0  0  0  0  0
   19.2448   -2.0532   -2.0376 C   0  0  1  0  0  0  0  0  0  0  0  0
   19.9808   -0.9392   -1.3464 C   0  0  0  0  0  0  0  0  0  0  0  0
   17.9654   -1.5449   -2.6147 C   0  0  0  0  0  3  0  0  0  0  0  0
   16.7525   -2.1834   -2.0289 C   0  0  0  0  0  0  0  0  0  0  0  0
   16.5477   -3.5734   -2.4936 C   0  0  0  0  0  0  0  0  0  0  0  0
   16.1929   -3.7896   -3.9073 C   0  0  2  0  0  0  0  0  0  0  0  0
   15.3171   -2.7471   -4.5062 C   0  0  0  0  0  0  0  0  0  0  0  0
   15.7952   -5.1928   -4.1830 C   0  0  0  0  0  0  0  0  0  0  0  0
   16.0402   -5.6637   -5.5740 C   0  0  1  0  0  0  0  0  0  0  0  0
   16.8812   -7.2757   -5.5791 S   0  0  0  0  0  0  0  0  0  0  0  0
   14.8077   -5.6786   -6.4322 C   0  0  0  0  0  0  0  0  0  0  0  0
   15.0393   -4.8864   -7.6807 C   0  0  0  0  0  0  0  0  0  0  0  0
   13.8487   -4.9542   -8.6043 C   0  0  0  0  0  0  0  0  0  0  0  0
   12.8856   -5.7791   -8.0492 F   0  0  0  0  0  0  0  0  0  0  0  0
  1  2  1  0
  2  3  1  0
  2  4  1  0
  4  5  1  0
  5  6  1  0
  6  7  1  0
  7  8  1  6
  7  9  1  0
  9 10  1  0
 10 11  1  0
 11 12  1  0
 12 13  1  1
 12 14  1  0
 14 15  1  0
 15 16  1  1
 15 17  1  0
 17 18  1  0
 18 19  1  0
 19 20  1  0
M  RAD  1   9   2
M  END
>  <docking_score>  (3) 
-2.8039999999999998

$$$$
