
     RDKit          3D

 17 17  0  0  0  0  0  0  0  0999 V2000
    4.8053    7.1102    4.8021 C   0  0  0  0  0  0  0  0  0  0  0  0
    4.4960    8.4585    4.7945 O   0  0  0  0  0  0  0  0  0  0  0  0
    5.2235    9.0360    3.7322 C   0  0  0  0  0  0  0  0  0  0  0  0
    5.8706   10.2781    4.2632 C   0  0  1  0  0  0  0  0  0  0  0  0
    6.6188   10.0444    5.3965 O   0  0  0  0  0  0  0  0  0  0  0  0
    6.7068   10.9619    3.2045 C   0  0  2  0  0  0  0  0  0  0  0  0
    7.8633   11.4247    3.8194 O   0  0  0  0  0  0  0  0  0  0  0  0
    5.8856   12.0479    2.5817 C   0  0  1  0  0  0  0  0  0  0  0  0
    4.8822   12.4132    3.4575 O   0  0  0  0  0  0  0  0  0  0  0  0
    6.6644   13.2677    2.2079 C   0  0  0  0  0  3  0  0  0  0  0  0
    6.5190   14.2475    3.2898 N   0  0  0  0  0  0  0  0  0  0  0  0
    7.1150   15.5266    2.9168 C   0  0  0  0  0  3  0  0  0  0  0  0
    8.4894   15.6593    3.5279 C   0  0  0  0  0  0  0  0  0  0  0  0
    9.2878   14.4316    3.1230 C   0  0  1  0  0  0  0  0  0  0  0  0
   10.6582   14.6714    3.2087 O   0  0  0  0  0  0  0  0  0  0  0  0
    8.9447   13.2728    3.8968 N   0  0  0  0  0  0  0  0  0  0  0  0
    8.5156   12.2693    3.0749 O   0  0  0  0  0  0  0  0  0  0  0  0
  1  2  1  0
  2  3  1  0
  3  4  1  0
  4  5  1  1
  4  6  1  0
  6  7  1  1
  6  8  1  0
  8  9  1  1
  8 10  1  0
 10 11  1  0
 11 12  1  0
 12 13  1  0
 13 14  1  0
 14 15  1  1
 14 16  1  0
 16 17  1  0
 17  7  1  0
M  RAD  2  10   2  12   2
M  END
>  <docking_score>  (1) 
-4.2359999999999998

$$$$

     RDKit          3D

 17 17  0  0  0  0  0  0  0  0999 V2000
   13.5109   -5.2780   -6.1190 C   0  0  0  0  0  0  0  0  0  0  0  0
   14.3484   -4.2217   -6.4291 O   0  0  0  0  0  0  0  0  0  0  0  0
   14.5208   -3.4781   -5.2422 C   0  0  0  0  0  0  0  0  0  0  0  0
   15.9879   -3.4601   -4.9409 C   0  0  1  0  0  0  0  0  0  0  0  0
   16.7163   -2.7732   -5.8877 O   0  0  0  0  0  0  0  0  0  0  0  0
   16.2616   -2.9123   -3.5579 C   0  0  2  0  0  0  0  0  0  0  0  0
   17.2015   -1.8978   -3.6883 O   0  0  0  0  0  0  0  0  0  0  0  0
   16.7169   -4.0399   -2.6843 C   0  0  1  0  0  0  0  0  0  0  0  0
   17.2177   -5.0522   -3.4789 O   0  0  0  0  0  0  0  0  0  0  0  0
   17.7573   -3.6571   -1.6816 C   0  0  0  0  0  3  0  0  0  0  0  0
   19.0701   -4.0074   -2.2344 N   0  0  0  0  0  0  0  0  0  0  0  0
   20.1211   -3.8163   -1.2398 C   0  0  0  0  0  3  0  0  0  0  0  0
   20.8251   -2.5007   -1.4714 C   0  0  0  0  0  0  0  0  0  0  0  0
   19.7620   -1.4156   -1.5049 C   0  0  1  0  0  0  0  0  0  0  0  0
   20.3105   -0.1646   -1.2274 O   0  0  0  0  0  0  0  0  0  0  0  0
   19.0577   -1.3745   -2.7545 N   0  0  0  0  0  0  0  0  0  0  0  0
   17.7193   -1.5529   -2.5455 O   0  0  0  0  0  0  0  0  0  0  0  0
  1  2  1  0
  2  3  1  0
  3  4  1  0
  4  5  1  6
  4  6  1  0
  6  7  1  6
  6  8  1  0
  8  9  1  6
  8 10  1  0
 10 11  1  0
 11 12  1  0
 12 13  1  0
 13 14  1  0
 14 15  1  6
 14 16  1  0
 16 17  1  0
 17  7  1  0
M  RAD  2  10   2  12   2
M  END
>  <docking_score>  (2) 
-4.2300000000000004

$$$$

     RDKit          3D

 17 17  0  0  0  0  0  0  0  0999 V2000
    3.3527    6.4489    4.0938 C   0  0  0  0  0  0  0  0  0  0  0  0
    3.7267    7.7164    3.6850 O   0  0  0  0  0  0  0  0  0  0  0  0
    4.3613    8.3279    4.7871 C   0  0  0  0  0  0  0  0  0  0  0  0
    4.6291    9.7522    4.4088 C   0  0  1  0  0  0  0  0  0  0  0  0
    4.4494   10.6241    5.4606 O   0  0  0  0  0  0  0  0  0  0  0  0
    6.0090    9.9155    3.8114 C   0  0  2  0  0  0  0  0  0  0  0  0
    6.6555   10.9200    4.5206 O   0  0  0  0  0  0  0  0  0  0  0  0
    5.8601   10.2153    2.3521 C   0  0  1  0  0  0  0  0  0  0  0  0
    4.6012   10.7354    2.1246 O   0  0  0  0  0  0  0  0  0  0  0  0
    6.8780   11.1692    1.8151 C   0  0  0  0  0  3  0  0  0  0  0  0
    6.2811   12.5090    1.8020 N   0  0  0  0  0  0  0  0  0  0  0  0
    7.1595   13.4633    1.1327 C   0  0  0  0  0  3  0  0  0  0  0  0
    7.9365   14.2608    2.1528 C   0  0  0  0  0  0  0  0  0  0  0  0
    8.6361   13.2701    3.0680 C   0  0  1  0  0  0  0  0  0  0  0  0
    9.7265   13.8580    3.7068 O   0  0  0  0  0  0  0  0  0  0  0  0
    7.7490   12.6991    4.0407 N   0  0  0  0  0  0  0  0  0  0  0  0
    7.7300   11.3385    3.9177 O   0  0  0  0  0  0  0  0  0  0  0  0
  1  2  1  0
  2  3  1  0
  3  4  1  0
  4  5  1  1
  4  6  1  0
  6  7  1  1
  6  8  1  0
  8  9  1  1
  8 10  1  0
 10 11  1  0
 11 12  1  0
 12 13  1  0
 13 14  1  0
 14 15  1  1
 14 16  1  0
 16 17  1  0
 17  7  1  0
M  RAD  2  10   2  12   2
M  END
>  <docking_score>  (3) 
-4.1369999999999996

$$$$
