
     RDKit          3D

 24 26  0  0  0  0  0  0  0  0999 V2000
   19.5459   -8.2204   -4.6851 C   0  0  0  0  0  0  0  0  0  0  0  0
   18.4593   -7.1845   -4.3852 C   0  0  0  0  0  0  0  0  0  0  0  0
   18.1975   -6.4530   -5.6722 C   0  0  1  0  0  0  0  0  0  0  0  0
   16.8946   -6.9499   -6.3345 C   0  0  0  0  0  0  0  0  0  0  0  0
   15.6475   -6.5876   -5.6377 C   0  0  0  0  0  0  0  0  0  0  0  0
   14.6013   -5.8538   -6.3791 C   0  0  0  0  0  0  0  0  0  0  0  0
   13.6605   -4.6238   -5.4576 S   0  0  0  0  0  0  0  0  0  0  0  0
   14.5323   -3.0201   -5.4192 C   0  0  0  0  0  0  0  0  0  0  0  0
   15.4595   -2.9559   -4.6300 N   0  0  0  0  0  0  0  0  0  0  0  0
   16.4255   -2.0483   -4.1938 C   0  0  2  0  0  0  0  0  0  0  0  0
   16.8812   -1.3744   -5.4763 C   0  0  0  0  0  0  0  0  0  0  0  0
   17.1266   -1.8518   -6.6987 C   0  0  0  0  0  0  0  0  0  0  0  0
   17.0468   -3.2713   -7.1401 C   0  0  0  0  0  0  0  0  0  0  0  0
   17.4609   -4.4297   -6.6688 C   0  0  0  0  0  0  0  0  0  0  0  0
   17.4509   -5.2927   -7.7602 O   0  0  0  0  0  0  0  0  0  0  0  0
   17.8881   -4.9799   -5.4094 C   0  0  1  0  0  0  0  0  0  0  0  0
   16.8898   -5.1798   -4.3185 C   0  0  0  0  0  0  0  0  0  0  0  0
   17.1948   -5.4283   -3.0799 C   0  0  0  0  0  0  0  0  0  0  0  0
   18.9183   -4.2245   -4.7488 N   0  0  0  0  0  0  0  0  0  0  0  0
   18.0094   -2.9797   -3.8361 S   0  0  0  0  0  0  0  0  0  0  0  0
   18.9271   -2.2556   -2.6884 C   0  0  0  0  0  0  0  0  0  0  0  0
   20.0350   -2.1289   -1.8589 C   0  0  1  0  0  0  0  0  0  0  0  0
   18.9951   -1.0960   -1.7814 O   0  0  0  0  0  0  0  0  0  0  0  0
   20.1758   -2.9982   -0.6450 C   0  0  0  0  0  1  0  0  0  0  0  0
  1  2  1  0
  3  2  1  1
  3  4  1  0
  4  5  1  0
  5  6  1  0
  6  7  1  0
  7  8  1  0
  8  9  2  3
  9 10  1  0
 10 11  1  6
 11 12  2  3
 12 13  1  0
 13 14  2  3
 14 15  1  0
 14 16  1  0
 16 17  1  1
 17 18  2  0
 16 19  1  0
 10 20  1  0
 20 21  2  3
 21 22  1  0
 22 23  1  0
 22 24  1  1
 16  3  1  0
 20 19  1  0
 23 21  1  0
M  RAD  1  24   2
M  END
>  <docking_score>  (1) 
-5.6390000000000002

$$$$

     RDKit          3D

 24 26  0  0  0  0  0  0  0  0999 V2000
   14.6578   -0.2149   -5.7141 C   0  0  0  0  0  0  0  0  0  0  0  0
   15.5452   -1.3245   -6.2844 C   0  0  0  0  0  0  0  0  0  0  0  0
   15.2181   -2.5734   -5.5141 C   0  0  1  0  0  0  0  0  0  0  0  0
   14.7718   -3.7063   -6.4630 C   0  0  0  0  0  0  0  0  0  0  0  0
   15.8275   -4.2692   -7.3239 C   0  0  0  0  0  0  0  0  0  0  0  0
   16.0867   -5.7230   -7.2797 C   0  0  0  0  0  0  0  0  0  0  0  0
   17.8002   -6.2508   -7.4599 S   0  0  0  0  0  0  0  0  0  0  0  0
   18.6747   -6.2088   -5.8578 C   0  0  0  0  0  0  0  0  0  0  0  0
   19.0171   -5.0992   -5.4861 N   0  0  0  0  0  0  0  0  0  0  0  0
   19.6729   -4.4902   -4.4154 C   0  0  2  0  0  0  0  0  0  0  0  0
   19.1200   -5.2183   -3.2027 C   0  0  0  0  0  0  0  0  0  0  0  0
   17.8895   -5.6341   -2.8937 C   0  0  0  0  0  0  0  0  0  0  0  0
   16.6507   -5.4454   -3.6973 C   0  0  0  0  0  0  0  0  0  0  0  0
   16.0868   -4.4424   -4.3388 C   0  0  0  0  0  0  0  0  0  0  0  0
   14.7551   -4.8129   -4.4975 O   0  0  0  0  0  0  0  0  0  0  0  0
   16.4730   -3.1623   -4.8713 C   0  0  1  0  0  0  0  0  0  0  0  0
   17.3564   -3.1024   -6.0723 C   0  0  0  0  0  0  0  0  0  0  0  0
   17.9228   -2.0196   -6.5145 C   0  0  0  0  0  0  0  0  0  0  0  0
   17.1643   -2.3138   -3.9383 N   0  0  0  0  0  0  0  0  0  0  0  0
   18.8732   -2.8304   -4.0843 S   0  0  0  0  0  0  0  0  0  0  0  0
   19.9097   -1.7455   -3.4269 C   0  0  0  0  0  0  0  0  0  0  0  0
   20.2740   -0.5084   -2.9086 C   0  0  1  0  0  0  0  0  0  0  0  0
   21.2983   -1.5578   -2.9703 O   0  0  0  0  0  0  0  0  0  0  0  0
   20.4899    0.6616   -3.8216 C   0  0  0  0  0  1  0  0  0  0  0  0
  1  2  1  0
  3  2  1  6
  3  4  1  0
  4  5  1  0
  5  6  1  0
  6  7  1  0
  7  8  1  0
  8  9  2  3
  9 10  1  0
 10 11  1  1
 11 12  2  3
 12 13  1  0
 13 14  2  3
 14 15  1  0
 14 16  1  0
 16 17  1  6
 17 18  2  0
 16 19  1  0
 10 20  1  0
 20 21  2  3
 21 22  1  0
 22 23  1  0
 22 24  1  6
 16  3  1  0
 20 19  1  0
 23 21  1  0
M  RAD  1  24   2
M  END
>  <docking_score>  (2) 
-5.2480000000000002

$$$$

     RDKit          3D

 24 26  0  0  0  0  0  0  0  0999 V2000
   15.4299   -4.4768   -8.7395 C   0  0  0  0  0  0  0  0  0  0  0  0
   16.6025   -4.0320   -7.8616 C   0  0  0  0  0  0  0  0  0  0  0  0
   16.7546   -5.0744   -6.7890 C   0  0  1  0  0  0  0  0  0  0  0  0
   18.1775   -5.6729   -6.7986 C   0  0  0  0  0  0  0  0  0  0  0  0
   19.2526   -4.7672   -6.3556 C   0  0  0  0  0  0  0  0  0  0  0  0
   20.1296   -5.1885   -5.2438 C   0  0  0  0  0  0  0  0  0  0  0  0
   20.6815   -3.9020   -4.1091 S   0  0  0  0  0  0  0  0  0  0  0  0
   19.4417   -3.5985   -2.8036 C   0  0  0  0  0  0  0  0  0  0  0  0
   18.4808   -2.9325   -3.1496 N   0  0  0  0  0  0  0  0  0  0  0  0
   17.2966   -2.4171   -2.6211 C   0  0  2  0  0  0  0  0  0  0  0  0
   16.7685   -3.5542   -1.7639 C   0  0  0  0  0  0  0  0  0  0  0  0
   16.7229   -4.8741   -1.9590 C   0  0  0  0  0  0  0  0  0  0  0  0
   17.1758   -5.6188   -3.1658 C   0  0  0  0  0  0  0  0  0  0  0  0
   17.0310   -5.4809   -4.4679 C   0  0  0  0  0  0  0  0  0  0  0  0
   17.3192   -6.7330   -5.0020 O   0  0  0  0  0  0  0  0  0  0  0  0
   16.6761   -4.4431   -5.3998 C   0  0  1  0  0  0  0  0  0  0  0  0
   17.6244   -3.3167   -5.6412 C   0  0  0  0  0  0  0  0  0  0  0  0
   17.4530   -2.3910   -6.5371 C   0  0  0  0  0  0  0  0  0  0  0  0
   15.4535   -3.7539   -5.0855 N   0  0  0  0  0  0  0  0  0  0  0  0
   15.9713   -2.4763   -3.9417 S   0  0  0  0  0  0  0  0  0  0  0  0
   14.8357   -1.3105   -3.7551 C   0  0  0  0  0  0  0  0  0  0  0  0
   13.6821   -0.6128   -4.0929 C   0  0  1  0  0  0  0  0  0  0  0  0
   14.4296   -0.1749   -2.9081 O   0  0  0  0  0  0  0  0  0  0  0  0
   13.6854    0.3416   -5.2497 C   0  0  0  0  0  1  0  0  0  0  0  0
  1  2  1  0
  3  2  1  6
  3  4  1  0
  4  5  1  0
  5  6  1  0
  6  7  1  0
  7  8  1  0
  8  9  2  3
  9 10  1  0
 10 11  1  1
 11 12  2  3
 12 13  1  0
 13 14  2  3
 14 15  1  0
 14 16  1  0
 16 17  1  6
 17 18  2  0
 16 19  1  0
 10 20  1  0
 20 21  2  3
 21 22  1  0
 22 23  1  0
 22 24  1  6
 16  3  1  0
 20 19  1  0
 23 21  1  0
M  RAD  1  24   2
M  END
>  <docking_score>  (3) 
-4.8010000000000002

$$$$
