
     RDKit          3D

 17 16  0  0  0  0  0  0  0  0999 V2000
   20.8820   -5.5445   -3.1791 C   0  0  0  0  0  0  0  0  0  0  0  0
   19.6621   -4.6825   -3.3514 C   0  0  0  0  0  0  0  0  0  0  0  0
   19.3586   -4.5129   -4.8107 C   0  0  0  0  0  0  0  0  0  0  0  0
   18.4340   -5.2667   -2.6839 C   0  0  0  0  0  0  0  0  0  0  0  0
   17.8295   -4.1717   -1.8283 C   0  0  0  0  0  0  0  0  0  0  0  0
   16.4300   -3.9263   -2.3579 C   0  0  0  0  0  0  0  0  0  0  0  0
   16.3379   -2.4588   -2.6893 C   0  0  1  0  0  0  0  0  0  0  0  0
   17.5901   -1.7021   -2.4412 C   0  0  0  0  0  0  0  0  0  0  0  0
   15.7276   -2.2471   -4.0360 C   0  0  0  0  0  3  0  0  0  0  0  0
   15.1075   -3.4559   -4.6411 C   0  0  0  0  0  3  0  0  0  0  0  0
   15.8250   -3.9761   -5.8492 C   0  0  0  0  0  0  0  0  0  0  0  0
   15.3146   -5.3677   -6.1573 C   0  0  2  0  0  0  0  0  0  0  0  0
   13.8173   -5.4274   -5.9539 C   0  0  0  0  0  0  0  0  0  0  0  0
   15.9529   -6.3093   -5.1559 C   0  0  0  0  0  0  0  0  0  0  0  0
   16.9581   -7.1316   -5.8811 C   0  0  0  0  0  0  0  0  0  0  0  0
   17.8554   -7.9577   -5.1350 N   0  0  0  0  0  1  0  0  0  0  0  0
   17.0702   -7.1447   -7.1560 N   0  0  0  0  0  2  0  0  0  0  0  0
  1  2  1  0
  2  3  1  0
  2  4  1  0
  4  5  1  0
  5  6  1  0
  6  7  1  0
  7  8  1  6
  7  9  1  0
  9 10  1  0
 10 11  1  0
 11 12  1  0
 12 13  1  1
 12 14  1  0
 14 15  1  0
 15 16  1  0
 15 17  2  0
M  CHG  2  16   1  17  -1
M  RAD  3   9   2  10   2  16   2
M  END
>  <docking_score>  (1) 
-3.5619999999999998

$$$$

     RDKit          3D

 17 16  0  0  0  0  0  0  0  0999 V2000
   13.5190    0.0736   -4.4585 C   0  0  0  0  0  0  0  0  0  0  0  0
   14.2917   -1.1478   -4.8738 C   0  0  0  0  0  0  0  0  0  0  0  0
   15.1520   -0.8287   -6.0606 C   0  0  0  0  0  0  0  0  0  0  0  0
   15.1904   -1.6735   -3.7733 C   0  0  0  0  0  0  0  0  0  0  0  0
   15.5452   -3.1021   -4.1333 C   0  0  0  0  0  0  0  0  0  0  0  0
   17.0468   -3.2340   -3.9680 C   0  0  0  0  0  0  0  0  0  0  0  0
   17.3007   -3.5698   -2.5207 C   0  0  1  0  0  0  0  0  0  0  0  0
   16.4297   -4.6461   -1.9870 C   0  0  0  0  0  0  0  0  0  0  0  0
   18.7598   -3.7477   -2.2561 C   0  0  0  0  0  3  0  0  0  0  0  0
   19.5291   -4.3644   -3.3696 C   0  0  0  0  0  3  0  0  0  0  0  0
   19.9432   -5.7824   -3.1197 C   0  0  0  0  0  0  0  0  0  0  0  0
   19.0016   -6.7036   -3.8661 C   0  0  2  0  0  0  0  0  0  0  0  0
   19.5614   -8.1082   -3.8899 C   0  0  0  0  0  0  0  0  0  0  0  0
   18.9357   -6.2101   -5.2975 C   0  0  0  0  0  0  0  0  0  0  0  0
   17.5136   -6.2597   -5.7309 C   0  0  0  0  0  0  0  0  0  0  0  0
   16.5242   -6.7588   -4.8276 N   0  0  0  0  0  1  0  0  0  0  0  0
   17.1150   -5.8754   -6.8849 N   0  0  0  0  0  2  0  0  0  0  0  0
  1  2  1  0
  2  3  1  0
  2  4  1  0
  4  5  1  0
  5  6  1  0
  6  7  1  0
  7  8  1  6
  7  9  1  0
  9 10  1  0
 10 11  1  0
 11 12  1  0
 12 13  1  6
 12 14  1  0
 14 15  1  0
 15 16  1  0
 15 17  2  0
M  CHG  2  16   1  17  -1
M  RAD  3   9   2  10   2  16   2
M  END
>  <docking_score>  (2) 
-3.3479999999999999

$$$$

     RDKit          3D

 17 16  0  0  0  0  0  0  0  0999 V2000
   17.9863   -5.6543   -3.1378 C   0  0  0  0  0  0  0  0  0  0  0  0
   18.5684   -4.2695   -3.0691 C   0  0  0  0  0  0  0  0  0  0  0  0
   18.5243   -3.7665   -1.6565 C   0  0  0  0  0  0  0  0  0  0  0  0
   20.0076   -4.2160   -3.5392 C   0  0  0  0  0  0  0  0  0  0  0  0
   20.1580   -2.9567   -4.3686 C   0  0  0  0  0  0  0  0  0  0  0  0
   18.7932   -2.6558   -4.9569 C   0  0  0  0  0  0  0  0  0  0  0  0
   18.9701   -2.5656   -6.4511 C   0  0  1  0  0  0  0  0  0  0  0  0
   19.4074   -3.8331   -7.0868 C   0  0  0  0  0  0  0  0  0  0  0  0
   17.7936   -1.9084   -7.0949 C   0  0  0  0  0  3  0  0  0  0  0  0
   16.5672   -2.7468   -7.1658 C   0  0  0  0  0  3  0  0  0  0  0  0
   15.3801   -2.1609   -6.4641 C   0  0  0  0  0  0  0  0  0  0  0  0
   14.9042   -3.1397   -5.4118 C   0  0  2  0  0  0  0  0  0  0  0  0
   15.3526   -2.6856   -4.0409 C   0  0  0  0  0  0  0  0  0  0  0  0
   15.5769   -4.4669   -5.6998 C   0  0  0  0  0  0  0  0  0  0  0  0
   14.5127   -5.4983   -5.8280 C   0  0  0  0  0  0  0  0  0  0  0  0
   13.5409   -5.3747   -6.8694 N   0  0  0  0  0  1  0  0  0  0  0  0
   14.4126   -6.5081   -5.0481 N   0  0  0  0  0  2  0  0  0  0  0  0
  1  2  1  0
  2  3  1  0
  2  4  1  0
  4  5  1  0
  5  6  1  0
  6  7  1  0
  7  8  1  6
  7  9  1  0
  9 10  1  0
 10 11  1  0
 11 12  1  0
 12 13  1  1
 12 14  1  0
 14 15  1  0
 15 16  1  0
 15 17  2  0
M  CHG  2  16   1  17  -1
M  RAD  3   9   2  10   2  16   2
M  END
>  <docking_score>  (3) 
-3.0659999999999998

$$$$
