
     RDKit          3D

 27 27  0  0  0  0  0  0  0  0999 V2000
   14.5182   -1.5325   -4.2350 C   0  0  0  0  0  0  0  0  0  0  0  0
   14.2810   -0.8179   -5.5711 C   0  0  1  0  0  0  0  0  0  0  0  0
   14.3912    0.6813   -5.2957 C   0  0  0  0  0  0  0  0  0  0  0  0
   15.4333   -1.1505   -6.5164 C   0  0  0  0  0  0  0  0  0  0  0  0
   15.7110   -2.6483   -6.3766 C   0  0  0  0  0  0  0  0  0  0  0  0
   15.2163   -3.3952   -7.5983 C   0  0  0  0  0  0  0  0  0  0  0  0
   14.9833   -4.8257   -7.1796 C   0  0  1  0  0  0  0  0  0  0  0  0
   14.3057   -5.6343   -8.2793 C   0  0  0  0  0  0  0  0  0  0  0  0
   16.3085   -5.4541   -6.7841 C   0  0  0  0  0  3  0  0  0  0  0  0
   16.1408   -6.9302   -6.5000 C   0  0  0  0  0  0  0  0  0  0  0  0
   17.5053   -7.5905   -6.6071 C   0  0  0  0  0  0  0  0  0  0  0  0
   18.2138   -7.0328   -7.8218 C   0  0  2  0  0  0  0  0  0  0  0  0
   18.5811   -8.1883   -8.7178 C   0  0  0  0  0  0  0  0  0  0  0  0
   19.4861   -6.3450   -7.4007 C   0  0  0  0  0  0  0  0  0  0  0  0
   19.8471   -6.7029   -5.9867 C   0  0  1  0  0  0  0  0  0  0  0  0
   20.9438   -7.6493   -6.0212 N   0  0  0  0  0  1  0  0  0  0  0  0
   20.2214   -5.4583   -5.1856 C   0  0  0  0  0  0  0  0  0  0  0  0
   19.8675   -5.7335   -3.7496 C   0  0  0  0  0  0  0  0  0  0  0  0
   20.6275   -4.9018   -2.7782 C   0  0  1  0  0  0  0  0  0  0  0  0
   21.3747   -3.7611   -3.3778 C   0  0  0  0  0  0  0  0  0  0  0  0
   19.9238   -4.5853   -1.6356 O   0  0  0  0  0  0  0  0  0  0  0  0
   18.9947   -3.5785   -1.8114 C   0  0  0  0  0  0  0  0  0  0  0  0
   18.9393   -3.0916   -3.2455 C   0  0  0  0  0  0  0  0  0  0  0  0
   18.3662   -1.7067   -3.3606 C   0  0  2  0  0  0  0  0  0  0  0  0
   18.8119   -0.8461   -2.3837 O   0  0  0  0  0  0  0  0  0  0  0  0
   16.9902   -1.6399   -3.6558 C   0  0  0  0  0  0  0  0  0  0  0  0
   15.8953   -1.5817   -3.9097 C   0  0  0  0  0  0  0  0  0  0  0  0
  1  2  1  0
  2  3  1  1
  2  4  1  0
  4  5  1  0
  5  6  1  0
  6  7  1  0
  7  8  1  6
  7  9  1  0
  9 10  1  0
 10 11  1  0
 11 12  1  0
 12 13  1  6
 12 14  1  0
 14 15  1  0
 15 16  1  6
 15 17  1  0
 17 18  1  0
 18 19  1  0
 19 20  1  6
 19 21  1  0
 21 22  1  0
 22 23  1  0
 23 24  1  0
 24 25  1  1
 24 26  1  0
 26 27  3  0
 27  1  1  0
M  CHG  1  16   1
M  RAD  2   9   2  16   2
M  END
>  <docking_score>  (1) 
-5.3419999999999996

$$$$

     RDKit          3D

 27 27  0  0  0  0  0  0  0  0999 V2000
    4.7859    9.1446   10.4366 C   0  0  0  0  0  0  0  0  0  0  0  0
    3.4814    8.4578   10.0143 C   0  0  1  0  0  0  0  0  0  0  0  0
    2.5321    8.5399   11.2091 C   0  0  0  0  0  0  0  0  0  0  0  0
    2.8275    9.2844    8.9091 C   0  0  0  0  0  0  0  0  0  0  0  0
    3.9374    9.6979    7.9410 C   0  0  0  0  0  0  0  0  0  0  0  0
    3.8391    8.9062    6.6531 C   0  0  0  0  0  0  0  0  0  0  0  0
    5.2088    8.9162    6.0207 C   0  0  1  0  0  0  0  0  0  0  0  0
    5.2802    7.9929    4.8104 C   0  0  0  0  0  0  0  0  0  0  0  0
    5.5734   10.3401    5.6374 C   0  0  0  0  0  3  0  0  0  0  0  0
    6.8744   10.3738    4.8666 C   0  0  0  0  0  0  0  0  0  0  0  0
    6.9344   11.6828    4.0971 C   0  0  0  0  0  0  0  0  0  0  0  0
    5.5755   11.9418    3.4848 C   0  0  2  0  0  0  0  0  0  0  0  0
    5.7576   12.0976    1.9964 C   0  0  0  0  0  0  0  0  0  0  0  0
    5.0090   13.2294    4.0237 C   0  0  0  0  0  0  0  0  0  0  0  0
    6.0701   14.0322    4.7217 C   0  0  1  0  0  0  0  0  0  0  0  0
    6.4546   15.1299    3.8574 N   0  0  0  0  0  1  0  0  0  0  0  0
    5.5705   14.5447    6.0702 C   0  0  0  0  0  0  0  0  0  0  0  0
    6.7708   14.6700    6.9683 C   0  0  0  0  0  0  0  0  0  0  0  0
    6.5800   15.6303    8.0883 C   0  0  1  0  0  0  0  0  0  0  0  0
    5.1741   16.0735    8.3028 C   0  0  0  0  0  0  0  0  0  0  0  0
    7.2537   15.2912    9.2424 O   0  0  0  0  0  0  0  0  0  0  0  0
    6.6488   14.2836    9.9680 C   0  0  0  0  0  0  0  0  0  0  0  0
    5.4014   13.7554    9.2886 C   0  0  0  0  0  0  0  0  0  0  0  0
    4.4662   13.0772   10.2505 C   0  0  2  0  0  0  0  0  0  0  0  0
    4.3395   13.7389   11.4503 O   0  0  0  0  0  0  0  0  0  0  0  0
    4.5883   11.6760   10.3325 C   0  0  0  0  0  0  0  0  0  0  0  0
    4.6697   10.5548   10.3877 C   0  0  0  0  0  0  0  0  0  0  0  0
  1  2  1  0
  2  3  1  1
  2  4  1  0
  4  5  1  0
  5  6  1  0
  6  7  1  0
  7  8  1  6
  7  9  1  0
  9 10  1  0
 10 11  1  0
 11 12  1  0
 12 13  1  6
 12 14  1  0
 14 15  1  0
 15 16  1  6
 15 17  1  0
 17 18  1  0
 18 19  1  0
 19 20  1  1
 19 21  1  0
 21 22  1  0
 22 23  1  0
 23 24  1  0
 24 25  1  1
 24 26  1  0
 26 27  3  0
 27  1  1  0
M  CHG  1  16   1
M  RAD  2   9   2  16   2
M  END
>  <docking_score>  (2) 
-5.2670000000000003

$$$$

     RDKit          3D

 27 27  0  0  0  0  0  0  0  0999 V2000
    7.2843   14.1445    5.5917 C   0  0  0  0  0  0  0  0  0  0  0  0
    6.7150   15.5609    5.7390 C   0  0  1  0  0  0  0  0  0  0  0  0
    6.3466   16.0371    4.3344 C   0  0  0  0  0  0  0  0  0  0  0  0
    5.3978   15.4824    6.5078 C   0  0  0  0  0  0  0  0  0  0  0  0
    5.6142   14.5141    7.6721 C   0  0  0  0  0  0  0  0  0  0  0  0
    5.7008   15.2711    8.9816 C   0  0  0  0  0  0  0  0  0  0  0  0
    6.4607   14.3981    9.9493 C   0  0  1  0  0  0  0  0  0  0  0  0
    6.7741   15.1319   11.2477 C   0  0  0  0  0  0  0  0  0  0  0  0
    5.6600   13.1360   10.2206 C   0  0  0  0  0  3  0  0  0  0  0  0
    6.3169   12.3032   11.2988 C   0  0  0  0  0  0  0  0  0  0  0  0
    5.2707   11.3623   11.8729 C   0  0  0  0  0  0  0  0  0  0  0  0
    3.9829   12.1338   12.0595 C   0  0  2  0  0  0  0  0  0  0  0  0
    3.5785   12.0212   13.5075 C   0  0  0  0  0  0  0  0  0  0  0  0
    2.8928   11.5196   11.2206 C   0  0  0  0  0  0  0  0  0  0  0  0
    3.2959   10.1580   10.7296 C   0  0  1  0  0  0  0  0  0  0  0  0
    2.5870    9.1633   11.5092 N   0  0  0  0  0  1  0  0  0  0  0  0
    2.9979   10.0027    9.2404 C   0  0  0  0  0  0  0  0  0  0  0  0
    4.0035    9.0303    8.6870 C   0  0  0  0  0  0  0  0  0  0  0  0
    3.5570    8.3569    7.4379 C   0  0  1  0  0  0  0  0  0  0  0  0
    2.3520    8.9551    6.7982 C   0  0  0  0  0  0  0  0  0  0  0  0
    4.5792    8.0587    6.5621 O   0  0  0  0  0  0  0  0  0  0  0  0
    5.0360    9.1465    5.8439 C   0  0  0  0  0  0  0  0  0  0  0  0
    4.3274   10.4290    6.2305 C   0  0  0  0  0  0  0  0  0  0  0  0
    4.4054   11.4757    5.1543 C   0  0  2  0  0  0  0  0  0  0  0  0
    4.2239   10.9727    3.8864 O   0  0  0  0  0  0  0  0  0  0  0  0
    5.4413   12.4198    5.2973 C   0  0  0  0  0  0  0  0  0  0  0  0
    6.2560   13.1870    5.4174 C   0  0  0  0  0  0  0  0  0  0  0  0
  1  2  1  0
  2  3  1  6
  2  4  1  0
  4  5  1  0
  5  6  1  0
  6  7  1  0
  7  8  1  1
  7  9  1  0
  9 10  1  0
 10 11  1  0
 11 12  1  0
 12 13  1  1
 12 14  1  0
 14 15  1  0
 15 16  1  1
 15 17  1  0
 17 18  1  0
 18 19  1  0
 19 20  1  6
 19 21  1  0
 21 22  1  0
 22 23  1  0
 23 24  1  0
 24 25  1  6
 24 26  1  0
 26 27  3  0
 27  1  1  0
M  CHG  1  16   1
M  RAD  2   9   2  16   2
M  END
>  <docking_score>  (3) 
-3.867

$$$$
