
     RDKit          3D

 42 42  0  0  0  0  0  0  0  0999 V2000
   17.9633   -5.7125   -2.2848 O   0  0  0  0  0  0  0  0  0  0  0  0
   18.9438   -6.2225   -3.1234 C   0  0  0  0  0  0  0  0  0  0  0  0
   20.2486   -5.4848   -2.8514 C   0  0  0  0  0  3  0  0  0  0  0  0
   20.4045   -4.3783   -3.7738 N   0  0  0  0  0  0  0  0  0  0  0  0
   19.8039   -3.2176   -3.1664 C   0  0  2  0  0  0  0  0  0  0  0  0
   19.4966   -3.4238   -1.7040 C   0  0  0  0  0  0  0  0  0  0  0  0
   20.6622   -3.5226   -0.9526 O   0  0  0  0  0  0  0  0  0  0  0  0
   18.5194   -2.8652   -3.8678 C   0  0  1  0  0  0  0  0  0  0  0  0
   18.1413   -3.8211   -4.7939 O   0  0  0  0  0  0  0  0  0  0  0  0
   17.4101   -2.5794   -2.8813 C   0  0  2  0  0  0  0  0  0  0  0  0
   17.8967   -1.6792   -1.9233 O   0  0  0  0  0  0  0  0  0  0  0  0
   16.9709   -3.7095   -2.2169 O   0  0  0  0  0  0  0  0  0  0  0  0
   17.0710   -4.8697   -2.9661 C   0  0  2  0  0  0  0  0  0  0  0  0
   15.8278   -5.5210   -2.9497 O   0  0  0  0  0  0  0  0  0  0  0  0
   15.6454   -6.0274   -4.1508 O   0  0  0  0  0  0  0  0  0  0  0  0
   16.7742   -6.3275   -4.7369 O   0  0  0  0  0  0  0  0  0  0  0  0
   16.7359   -7.5537   -5.3769 C   0  0  0  0  0  3  0  0  0  0  0  0
   17.6273   -7.5470   -6.4588 O   0  0  0  0  0  0  0  0  0  0  0  0
   17.6759   -8.7869   -7.0940 C   0  0  2  0  0  0  0  0  0  0  0  0
   17.8013   -9.7989   -6.1589 O   0  0  0  0  0  0  0  0  0  0  0  0
   18.7488   -8.7584   -7.9705 O   0  0  0  0  0  0  0  0  0  0  0  0
   19.8304   -8.2467   -7.4474 O   0  0  0  0  0  0  0  0  0  0  0  0
   20.2136   -7.1441   -8.0723 O   0  0  0  0  0  0  0  0  0  0  0  0
   19.4005   -6.1026   -7.6134 C   0  0  0  0  0  0  0  0  0  0  0  0
   18.6811   -5.6405   -8.7218 O   0  0  0  0  0  0  0  0  0  0  0  0
   17.9895   -4.5942   -8.3561 O   0  0  0  0  0  0  0  0  0  0  0  0
   18.5576   -3.4697   -8.7353 O   0  0  0  0  0  0  0  0  0  0  0  0
   17.6382   -2.4410   -8.5876 C   0  0  0  0  0  3  0  0  0  0  0  0
   17.4094   -2.1870   -7.2325 O   0  0  0  0  0  0  0  0  0  0  0  0
   16.0613   -1.9427   -7.0329 C   0  0  1  0  0  0  0  0  0  0  0  0
   15.5519   -2.9221   -6.0002 C   0  0  1  0  0  0  0  0  0  0  0  0
   14.3963   -2.3601   -5.4455 O   0  0  0  0  0  0  0  0  0  0  0  0
   15.1653   -4.1832   -6.7332 C   0  0  0  0  0  0  0  0  0  0  0  0
   15.2717   -3.9115   -8.0976 O   0  0  0  0  0  0  0  0  0  0  0  0
   14.2631   -4.4588   -8.7363 O   0  0  0  0  0  0  0  0  0  0  0  0
   13.7476   -5.5304   -8.0015 C   0  0  0  0  0  3  0  0  0  0  0  0
   12.8014   -5.0434   -7.0927 O   0  0  0  0  0  0  0  0  0  0  0  0
   15.8096   -0.6232   -6.6789 O   0  0  0  0  0  0  0  0  0  0  0  0
   14.5591   -0.4575   -6.3043 O   0  0  0  0  0  0  0  0  0  0  0  0
   14.5134   -0.6380   -4.9203 C   0  0  0  0  0  3  0  0  0  0  0  0
   13.4157    0.0185   -4.3475 O   0  0  0  0  0  0  0  0  0  0  0  0
   12.8262   -0.7658   -3.4799 O   0  0  0  0  0  0  0  0  0  0  0  0
  1  2  1  0
  2  3  1  0
  3  4  1  0
  4  5  1  0
  5  6  1  1
  6  7  1  0
  5  8  1  0
  8  9  1  6
  8 10  1  0
 10 11  1  1
 10 12  1  0
 12 13  1  0
 13 14  1  1
 14 15  1  0
 15 16  1  0
 16 17  1  0
 17 18  1  0
 18 19  1  0
 19 20  1  1
 19 21  1  0
 21 22  1  0
 22 23  1  0
 23 24  1  0
 24 25  1  0
 25 26  1  0
 26 27  1  0
 27 28  1  0
 28 29  1  0
 30 29  1  1
 30 31  1  0
 31 32  1  6
 31 33  1  0
 33 34  1  0
 34 35  1  0
 35 36  1  0
 36 37  1  0
 30 38  1  0
 38 39  1  0
 39 40  1  0
 40 41  1  0
 41 42  1  0
 13  1  1  0
M  RAD  5   3   2  17   2  28   2  36   2  40   2
M  END
>  <docking_score>  (1) 
-2.7789999999999999

$$$$

     RDKit          3D

 42 42  0  0  0  0  0  0  0  0999 V2000
    5.8737   11.2232   11.0491 O   0  0  0  0  0  0  0  0  0  0  0  0
    6.2472    9.9000   11.2347 C   0  0  0  0  0  0  0  0  0  0  0  0
    4.9957    9.0320   11.2031 C   0  0  0  0  0  3  0  0  0  0  0  0
    4.5031    8.8079   12.5472 N   0  0  0  0  0  0  0  0  0  0  0  0
    3.5722    9.8652   12.8514 C   0  0  2  0  0  0  0  0  0  0  0  0
    3.1775   10.6575   11.6298 C   0  0  0  0  0  0  0  0  0  0  0  0
    2.2582    9.9619   10.8527 O   0  0  0  0  0  0  0  0  0  0  0  0
    4.1703   10.8175   13.8520 C   0  0  1  0  0  0  0  0  0  0  0  0
    5.5053   10.5544   14.1023 O   0  0  0  0  0  0  0  0  0  0  0  0
    3.9559   12.2570   13.4432 C   0  0  2  0  0  0  0  0  0  0  0  0
    2.6032   12.4227   13.1150 O   0  0  0  0  0  0  0  0  0  0  0  0
    4.7075   12.6259   12.3429 O   0  0  0  0  0  0  0  0  0  0  0  0
    5.9160   11.9572   12.2450 C   0  0  2  0  0  0  0  0  0  0  0  0
    6.9396   12.9045   12.0866 O   0  0  0  0  0  0  0  0  0  0  0  0
    6.6418   13.6143   11.0190 O   0  0  0  0  0  0  0  0  0  0  0  0
    5.3517   13.7425   10.8551 O   0  0  0  0  0  0  0  0  0  0  0  0
    4.9851   13.8089    9.5225 C   0  0  0  0  0  3  0  0  0  0  0  0
    3.7521   14.4659    9.4066 O   0  0  0  0  0  0  0  0  0  0  0  0
    3.8280   15.5546    8.5393 C   0  0  2  0  0  0  0  0  0  0  0  0
    2.5650   16.0693    8.3059 O   0  0  0  0  0  0  0  0  0  0  0  0
    4.4278   15.1097    7.3721 O   0  0  0  0  0  0  0  0  0  0  0  0
    3.8820   14.0254    6.8909 O   0  0  0  0  0  0  0  0  0  0  0  0
    4.7178   12.9986    6.9022 O   0  0  0  0  0  0  0  0  0  0  0  0
    4.9312   12.6219    5.5722 C   0  0  0  0  0  0  0  0  0  0  0  0
    3.6717   12.5808    4.9625 O   0  0  0  0  0  0  0  0  0  0  0  0
    2.8299   12.0282    5.7947 O   0  0  0  0  0  0  0  0  0  0  0  0
    3.3150   10.9289    6.3306 O   0  0  0  0  0  0  0  0  0  0  0  0
    3.6653   10.0588    5.3081 C   0  0  0  0  0  3  0  0  0  0  0  0
    2.6243    9.9568    4.3812 O   0  0  0  0  0  0  0  0  0  0  0  0
    3.0256    9.1535    3.3274 C   0  0  1  0  0  0  0  0  0  0  0  0
    4.0571    9.9108    2.5227 C   0  0  1  0  0  0  0  0  0  0  0  0
    4.4129    9.0896    1.4466 O   0  0  0  0  0  0  0  0  0  0  0  0
    3.3807   11.1451    1.9784 C   0  0  0  0  0  0  0  0  0  0  0  0
    4.3901   12.0186    1.5726 O   0  0  0  0  0  0  0  0  0  0  0  0
    5.4365   11.8768    2.3534 O   0  0  0  0  0  0  0  0  0  0  0  0
    6.3395   12.9242    2.1492 C   0  0  0  0  0  3  0  0  0  0  0  0
    7.0705   13.1282    3.3250 O   0  0  0  0  0  0  0  0  0  0  0  0
    3.4921    7.9162    3.7532 O   0  0  0  0  0  0  0  0  0  0  0  0
    3.0492    7.6254    4.9577 O   0  0  0  0  0  0  0  0  0  0  0  0
    2.7985    6.2520    4.9869 C   0  0  0  0  0  3  0  0  0  0  0  0
    3.8557    5.5197    4.4301 O   0  0  0  0  0  0  0  0  0  0  0  0
    4.3086    4.6524    5.3008 O   0  0  0  0  0  0  0  0  0  0  0  0
  1  2  1  0
  2  3  1  0
  3  4  1  0
  4  5  1  0
  5  6  1  6
  6  7  1  0
  5  8  1  0
  8  9  1  6
  8 10  1  0
 10 11  1  6
 10 12  1  0
 12 13  1  0
 13 14  1  6
 14 15  1  0
 15 16  1  0
 16 17  1  0
 17 18  1  0
 18 19  1  0
 19 20  1  6
 19 21  1  0
 21 22  1  0
 22 23  1  0
 23 24  1  0
 24 25  1  0
 25 26  1  0
 26 27  1  0
 27 28  1  0
 28 29  1  0
 30 29  1  1
 30 31  1  0
 31 32  1  6
 31 33  1  0
 33 34  1  0
 34 35  1  0
 35 36  1  0
 36 37  1  0
 30 38  1  0
 38 39  1  0
 39 40  1  0
 40 41  1  0
 41 42  1  0
 13  1  1  0
M  RAD  5   3   2  17   2  28   2  36   2  40   2
M  END
>  <docking_score>  (2) 
-2.5499999999999998

$$$$
