
     RDKit          3D

 45 46  0  0  0  0  0  0  0  0999 V2000
   16.9944   -3.2231   -7.0106 O   0  0  0  0  0  0  0  0  0  0  0  0
   16.2824   -2.5229   -7.9845 C   0  0  0  0  0  0  0  0  0  0  0  0
   14.8352   -2.3814   -7.5246 C   0  0  0  0  0  3  0  0  0  0  0  0
   14.7102   -1.0936   -6.8331 N   0  0  0  0  0  0  0  0  0  0  0  0
   13.6744   -1.2441   -5.8255 C   0  0  2  0  0  0  0  0  0  0  0  0
   13.4213    0.1274   -5.2449 C   0  0  0  0  0  0  0  0  0  0  0  0
   14.6171    0.8396   -5.1263 O   0  0  0  0  0  0  0  0  0  0  0  0
   14.0883   -2.2321   -4.7640 C   0  0  1  0  0  0  0  0  0  0  0  0
   13.5298   -3.4747   -4.9405 O   0  0  0  0  0  0  0  0  0  0  0  0
   15.5742   -2.2809   -4.5968 C   0  0  2  0  0  0  0  0  0  0  0  0
   16.2799   -1.3445   -5.3100 O   0  0  0  0  0  0  0  0  0  0  0  0
   16.1822   -3.6363   -4.8172 C   0  0  0  0  0  3  0  0  0  0  0  0
   16.1442   -4.0544   -6.2941 C   0  0  2  0  0  0  0  0  0  0  0  0
   16.6760   -5.4645   -6.3636 C   0  0  2  0  0  0  0  0  0  0  0  0
   16.5184   -6.0423   -5.1147 O   0  0  0  0  0  0  0  0  0  0  0  0
   18.0642   -5.4629   -6.8646 C   0  0  2  0  0  0  0  0  0  0  0  0
   19.0230   -4.5307   -6.2068 C   0  0  1  0  0  0  0  0  0  0  0  0
   18.8123   -4.5026   -4.8233 O   0  0  0  0  0  0  0  0  0  0  0  0
   20.4693   -4.8732   -6.5190 C   0  0  0  0  0  0  0  0  0  0  0  0
   20.9903   -5.6907   -5.3230 C   0  0  2  0  0  0  0  0  0  0  0  0
   19.9484   -6.7500   -5.0732 C   0  0  2  0  0  0  0  0  0  0  0  0
   19.5313   -6.8982   -3.6520 C   0  0  0  0  0  2  0  0  0  0  0  0
   20.2607   -8.2806   -5.9380 S   0  0  0  0  0  0  0  0  0  0  0  0
   19.1684   -9.5699   -5.2214 C   0  0  0  0  0  3  0  0  0  0  0  0
   18.4989  -10.3083   -6.3674 C   0  0  0  0  0  0  0  0  0  0  0  0
   18.5582   -9.5062   -7.5052 O   0  0  0  0  0  0  0  0  0  0  0  0
   17.8014   -8.3450   -7.2995 C   0  0  2  0  0  0  0  0  0  0  0  0
   16.5247   -8.7007   -6.8201 O   0  0  0  0  0  0  0  0  0  0  0  0
   17.6680   -7.7275   -8.5274 O   0  0  0  0  0  0  0  0  0  0  0  0
   18.7191   -6.9161   -8.6758 O   0  0  0  0  0  0  0  0  0  0  0  0
   18.2619   -5.6509   -8.3184 C   0  0  0  0  0  3  0  0  0  0  0  0
   21.0810   -4.7773   -4.2837 O   0  0  0  0  0  0  0  0  0  0  0  0
   20.7586   -3.4810   -4.6497 C   0  0  0  0  0  3  0  0  0  0  0  0
   20.3631   -2.7531   -3.3633 C   0  0  0  0  0  0  0  0  0  0  0  0
   20.6451   -1.2745   -3.6545 C   0  0  2  0  0  0  0  0  0  0  0  0
   19.9172   -0.4942   -2.5851 C   0  0  0  0  0  3  0  0  0  0  0  0
   19.1182   -1.7159   -1.4899 S   0  0  0  0  0  0  0  0  0  0  0  0
   17.6203   -2.2030   -2.1405 O   0  0  0  0  0  0  0  0  0  0  0  0
   16.6635   -2.0686   -1.1395 C   0  0  0  0  0  3  0  0  0  0  0  0
   15.9234   -0.9136   -1.3934 O   0  0  0  0  0  0  0  0  0  0  0  0
   20.1157   -1.0143   -4.9758 N   0  0  0  0  0  0  0  0  0  0  0  0
   20.4363    0.3175   -5.4413 C   0  0  2  0  0  0  0  0  0  0  0  0
   21.3675    0.9630   -4.4428 C   0  0  0  0  0  2  0  0  0  0  0  0
   19.1397    1.0966   -5.5233 C   0  0  0  0  0  0  0  0  0  0  0  0
   19.4466    2.4108   -5.7359 F   0  0  0  0  0  0  0  0  0  0  0  0
  1  2  1  0
  2  3  1  0
  3  4  1  0
  4  5  1  0
  5  6  1  1
  6  7  1  0
  5  8  1  0
  8  9  1  6
  8 10  1  0
 10 11  1  6
 10 12  1  0
 13 12  1  1
 13 14  1  0
 14 15  1  1
 14 16  1  0
 16 17  1  0
 17 18  1  1
 17 19  1  0
 19 20  1  0
 20 21  1  0
 21 22  1  1
 21 23  1  0
 23 24  1  0
 24 25  1  0
 25 26  1  0
 26 27  1  0
 27 28  1  6
 27 29  1  0
 29 30  1  0
 30 31  1  0
 20 32  1  1
 32 33  1  0
 33 34  1  0
 35 34  1  1
 35 36  1  0
 36 37  1  0
 37 38  1  0
 38 39  1  0
 39 40  1  0
 35 41  1  0
 41 42  1  0
 42 43  1  1
 42 44  1  0
 44 45  1  0
 13  1  1  0
 16 31  1  6
M  RAD  8   3   2  12   2  22   3  24   2  31   2  33   2  36   2  39   2
M  RAD  1  43   3
M  END
>  <docking_score>  (1) 
0.38200000000000001

$$$$
