
     RDKit          3D

 24 25  0  0  0  0  0  0  0  0999 V2000
    4.6482    6.6533    4.6263 C   0  0  0  0  0  0  0  0  0  0  0  0
    3.3586    6.0138    4.8274 N   0  0  0  0  0  0  0  0  0  0  0  0
    3.3224    5.2560    6.0629 C   0  0  0  0  0  0  0  0  0  0  0  0
    2.7974    6.0249    7.2293 C   0  0  0  0  0  0  0  0  0  0  0  0
    3.0805    7.4939    7.0916 C   0  0  0  0  0  0  0  0  0  0  0  0
    2.6760    8.0927    5.7904 C   0  0  0  0  0  0  0  0  0  0  0  0
    2.2797    6.9842    4.8128 C   0  0  0  0  0  0  0  0  0  0  0  0
    3.5620    8.1463    8.0629 O   0  0  0  0  0  0  0  0  0  0  0  0
    4.0554    8.8134    9.0790 C   0  0  0  0  0  0  0  0  0  0  0  0
    4.4753    8.1899   10.2707 C   0  0  0  0  0  0  0  0  0  0  0  0
    4.9830    8.9117   11.3046 C   0  0  0  0  0  0  0  0  0  0  0  0
    5.0822   10.2820   11.1686 C   0  0  0  0  0  0  0  0  0  0  0  0
    5.7885   11.3184   12.5992 Br  0  0  0  0  0  0  0  0  0  0  0  0
    4.6867   10.9315   10.0295 C   0  0  0  0  0  0  0  0  0  0  0  0
    4.1732   10.2157    8.9796 C   0  0  0  0  0  0  0  0  0  0  0  0
    3.7380   10.8656    7.7201 C   0  0  0  0  0  0  0  0  0  0  0  0
    4.8771   11.1017    6.7968 C   0  0  0  0  0  0  0  0  0  0  0  0
    5.2755   12.5580    6.7508 C   0  0  1  0  0  0  0  0  0  0  0  0
    6.2034   12.7531    5.5745 C   0  0  0  0  0  0  0  0  0  0  0  0
    5.8548   13.5715    4.6104 C   0  0  0  0  0  0  0  0  0  0  0  0
    6.6991   13.8271    3.4176 C   0  0  0  0  0  0  0  0  0  0  0  0
    8.4206   12.9916    3.6718 Br  0  0  0  0  0  0  0  0  0  0  0  0
    4.0511   13.4093    6.3800 C   0  0  0  0  0  0  0  0  0  0  0  0
    3.8297   14.6635    7.6517 Cl  0  0  0  0  0  0  0  0  0  0  0  0
  1  2  1  0
  2  3  1  0
  3  4  1  0
  4  5  1  0
  5  6  1  0
  6  7  1  0
  5  8  1  0
  8  9  1  0
  9 10  2  0
 10 11  1  0
 11 12  2  0
 12 13  1  0
 12 14  1  0
 14 15  2  0
 15 16  1  0
 16 17  1  0
 18 17  1  6
 18 19  1  0
 19 20  2  3
 20 21  1  0
 21 22  1  0
 18 23  1  0
 23 24  1  0
  7  2  1  0
 15  9  1  0
M  END
>  <docking_score>  (1) 
-3.629

$$$$

     RDKit          3D

 24 25  0  0  0  0  0  0  0  0999 V2000
   18.0661   -2.7096   -2.2458 C   0  0  0  0  0  0  0  0  0  0  0  0
   19.2259   -1.8741   -2.5093 N   0  0  0  0  0  0  0  0  0  0  0  0
   20.4575   -2.6380   -2.4703 C   0  0  0  0  0  0  0  0  0  0  0  0
   20.8906   -3.1564   -3.8009 C   0  0  0  0  0  0  0  0  0  0  0  0
   19.7152   -3.4043   -4.7033 C   0  0  0  0  0  0  0  0  0  0  0  0
   18.7627   -2.2667   -4.8216 C   0  0  0  0  0  0  0  0  0  0  0  0
   19.1080   -1.1943   -3.7860 C   0  0  0  0  0  0  0  0  0  0  0  0
   19.6223   -4.4881   -5.3497 O   0  0  0  0  0  0  0  0  0  0  0  0
   19.5200   -5.6179   -6.0084 C   0  0  0  0  0  0  0  0  0  0  0  0
   20.6282   -6.2679   -6.5869 C   0  0  0  0  0  0  0  0  0  0  0  0
   20.4868   -7.4388   -7.2627 C   0  0  0  0  0  0  0  0  0  0  0  0
   19.2254   -7.9889   -7.3756 C   0  0  0  0  0  0  0  0  0  0  0  0
   18.9967   -9.6267   -8.3162 Br  0  0  0  0  0  0  0  0  0  0  0  0
   18.1194   -7.3931   -6.8302 C   0  0  0  0  0  0  0  0  0  0  0  0
   18.2481   -6.2123   -6.1463 C   0  0  0  0  0  0  0  0  0  0  0  0
   17.0869   -5.5286   -5.5281 C   0  0  0  0  0  0  0  0  0  0  0  0
   15.7981   -6.1283   -5.9582 C   0  0  0  0  0  0  0  0  0  0  0  0
   14.6642   -5.1318   -5.9032 C   0  0  1  0  0  0  0  0  0  0  0  0
   15.2039   -3.8387   -5.3381 C   0  0  0  0  0  0  0  0  0  0  0  0
   14.3649   -2.9098   -4.9454 C   0  0  0  0  0  0  0  0  0  0  0  0
   14.8002   -1.6100   -4.3781 C   0  0  0  0  0  0  0  0  0  0  0  0
   14.5783   -0.2327   -5.7123 Br  0  0  0  0  0  0  0  0  0  0  0  0
   14.2537   -4.7482   -7.3335 C   0  0  0  0  0  0  0  0  0  0  0  0
   15.3837   -5.5532   -8.4800 Cl  0  0  0  0  0  0  0  0  0  0  0  0
  1  2  1  0
  2  3  1  0
  3  4  1  0
  4  5  1  0
  5  6  1  0
  6  7  1  0
  5  8  1  0
  8  9  1  0
  9 10  2  0
 10 11  1  0
 11 12  2  0
 12 13  1  0
 12 14  1  0
 14 15  2  0
 15 16  1  0
 16 17  1  0
 18 17  1  6
 18 19  1  0
 19 20  2  3
 20 21  1  0
 21 22  1  0
 18 23  1  0
 23 24  1  0
  7  2  1  0
 15  9  1  0
M  END
>  <docking_score>  (2) 
-3.613

$$$$

     RDKit          3D

 24 25  0  0  0  0  0  0  0  0999 V2000
   14.6170   -6.5715   -3.8184 C   0  0  0  0  0  0  0  0  0  0  0  0
   14.3872   -6.2097   -5.2072 N   0  0  0  0  0  0  0  0  0  0  0  0
   14.1113   -4.7940   -5.3542 C   0  0  0  0  0  0  0  0  0  0  0  0
   15.3207   -3.9683   -5.6416 C   0  0  0  0  0  0  0  0  0  0  0  0
   16.5574   -4.5791   -5.0460 C   0  0  0  0  0  0  0  0  0  0  0  0
   16.7648   -6.0177   -5.3665 C   0  0  0  0  0  0  0  0  0  0  0  0
   15.5135   -6.5816   -6.0433 C   0  0  0  0  0  0  0  0  0  0  0  0
   17.3696   -3.8663   -4.3878 O   0  0  0  0  0  0  0  0  0  0  0  0
   18.2174   -3.1228   -3.7176 C   0  0  0  0  0  0  0  0  0  0  0  0
   18.6482   -3.4408   -2.4143 C   0  0  0  0  0  0  0  0  0  0  0  0
   19.5288   -2.6481   -1.7482 C   0  0  0  0  0  0  0  0  0  0  0  0
   20.0011   -1.5122   -2.3751 C   0  0  0  0  0  0  0  0  0  0  0  0
   21.2343   -0.3833   -1.4673 Br  0  0  0  0  0  0  0  0  0  0  0  0
   19.6107   -1.1628   -3.6406 C   0  0  0  0  0  0  0  0  0  0  0  0
   18.7232   -1.9533   -4.3232 C   0  0  0  0  0  0  0  0  0  0  0  0
   18.2735   -1.6282   -5.6980 C   0  0  0  0  0  0  0  0  0  0  0  0
   19.4115   -1.5527   -6.6494 C   0  0  0  0  0  0  0  0  0  0  0  0
   19.2589   -2.5283   -7.7924 C   0  0  1  0  0  0  0  0  0  0  0  0
   19.7215   -3.8852   -7.3152 C   0  0  0  0  0  0  0  0  0  0  0  0
   20.7369   -3.9634   -6.4884 C   0  0  0  0  0  0  0  0  0  0  0  0
   21.2613   -5.2491   -5.9661 C   0  0  0  0  0  0  0  0  0  0  0  0
   20.8996   -6.6460   -7.2482 Br  0  0  0  0  0  0  0  0  0  0  0  0
   17.7653   -2.7454   -8.0805 C   0  0  0  0  0  0  0  0  0  0  0  0
   17.5441   -4.4300   -8.6745 Cl  0  0  0  0  0  0  0  0  0  0  0  0
  1  2  1  0
  2  3  1  0
  3  4  1  0
  4  5  1  0
  5  6  1  0
  6  7  1  0
  5  8  1  0
  8  9  1  0
  9 10  2  0
 10 11  1  0
 11 12  2  0
 12 13  1  0
 12 14  1  0
 14 15  2  0
 15 16  1  0
 16 17  1  0
 18 17  1  1
 18 19  1  0
 19 20  2  3
 20 21  1  0
 21 22  1  0
 18 23  1  0
 23 24  1  0
  7  2  1  0
 15  9  1  0
M  END
>  <docking_score>  (3) 
-3.3730000000000002

$$$$
