
     RDKit          3D

 53 56  0  0  0  0  0  0  0  0999 V2000
    5.0446   14.1544    4.4175 C   0  0  1  0  0  0  0  0  0  0  0  0
    4.2262   13.6220    3.4356 O   0  0  0  0  0  0  0  0  0  0  0  0
    4.5909   14.1517    2.2077 C   0  0  0  0  0  3  0  0  0  0  0  0
    5.3826   13.3065    1.4646 O   0  0  0  0  0  0  0  0  0  0  0  0
    6.7393   13.6193    1.5514 C   0  0  2  0  0  0  0  0  0  0  0  0
    7.3877   13.6784    0.2040 C   0  0  0  0  0  0  0  0  0  0  0  0
    7.3653   12.5356    2.4335 C   0  0  0  0  0  3  0  0  0  0  0  0
    6.3631   12.2576    3.5330 C   0  0  1  0  0  0  0  0  0  0  0  0
    6.6412   10.9799    4.2675 C   0  0  0  0  0  3  0  0  0  0  0  0
    5.6080    9.9216    4.0513 C   0  0  0  0  0  0  0  0  0  0  0  0
    4.9144    9.5011    5.3382 C   0  0  2  0  0  0  0  0  0  0  0  0
    4.0012    8.3635    4.9563 C   0  0  0  0  0  0  0  0  0  0  0  0
    2.8828    8.6421    4.5490 O   0  0  0  0  0  0  0  0  0  0  0  0
    4.0569   10.5851    5.9045 C   0  0  1  0  0  0  0  0  0  0  0  0
    2.6049   10.4435    5.5675 C   0  0  0  0  0  0  0  0  0  0  0  0
    4.2938   10.8123    7.3860 C   0  0  2  0  0  0  0  0  0  0  0  0
    3.7284    9.5818    8.0998 C   0  0  0  0  0  0  0  0  0  0  0  0
    2.5795    9.9268    8.8105 O   0  0  0  0  0  0  0  0  0  0  0  0
    3.5366   12.0509    7.7679 C   0  0  0  0  0  3  0  0  0  0  0  0
    4.2678   12.9794    8.6577 C   0  0  2  0  0  0  0  0  0  0  0  0
    4.7902   14.2160    8.0032 C   0  0  0  0  0  0  0  0  0  0  0  0
    5.2819   14.0352    6.7384 O   0  0  0  0  0  0  0  0  0  0  0  0
    4.3046   13.9792    5.7506 C   0  0  0  0  0  3  0  0  0  0  0  0
    5.1974   12.3627    9.6281 C   0  0  2  0  0  0  0  0  0  0  0  0
    4.3933   11.8167   10.7906 C   0  0  0  0  0  3  0  0  0  0  0  0
    5.2538   11.1145   11.8066 C   0  0  0  0  0  3  0  0  0  0  0  0
    5.5998    9.7119   11.3822 C   0  0  0  0  0  0  0  0  0  0  0  0
    4.3993    9.0128   11.2283 O   0  0  0  0  0  0  0  0  0  0  0  0
    4.5869    7.6955   11.6619 C   0  0  0  0  0  3  0  0  0  0  0  0
    3.5376    6.7658   11.0980 C   0  0  0  0  0  0  0  0  0  0  0  0
    2.4972    7.5247   10.4841 O   0  0  0  0  0  0  0  0  0  0  0  0
    2.2763    7.4431    9.1275 C   0  0  0  0  0  0  0  0  0  0  0  0
    2.5705    6.3475    8.4273 C   0  0  0  0  0  0  0  0  0  0  0  0
    2.3140    6.3119    6.9760 C   0  0  0  0  0  3  0  0  0  0  0  0
    3.0012    5.0746    6.4175 C   0  0  0  0  0  3  0  0  0  0  0  0
    3.8098    5.4964    5.3501 O   0  0  0  0  0  0  0  0  0  0  0  0
    5.1567    5.3846    5.6725 C   0  0  0  0  0  3  0  0  0  0  0  0
    5.8232    6.4698    5.1169 O   0  0  0  0  0  0  0  0  0  0  0  0
    6.2510   13.2683   10.1766 C   0  0  1  0  0  0  0  0  0  0  0  0
    5.7961   14.2792   10.9717 O   0  0  0  0  0  0  0  0  0  0  0  0
    6.8427   15.2241   11.0856 C   0  0  0  0  0  0  0  0  0  0  0  0
    6.9093   15.8081   12.4751 C   0  0  0  0  0  3  0  0  0  0  0  0
    5.4752   16.0705   12.9178 C   0  0  0  0  0  3  0  0  0  0  0  0
    4.9619   14.8926   13.4823 O   0  0  0  0  0  0  0  0  0  0  0  0
    6.0104   13.9855   13.7590 C   0  0  0  0  0  3  0  0  0  0  0  0
    5.8721   12.9527   12.8319 O   0  0  0  0  0  0  0  0  0  0  0  0
    7.0663   12.4350   12.3997 C   0  0  2  0  0  0  0  0  0  0  0  0
    8.1758   13.2711   11.8959 C   0  0  0  0  0  0  0  0  0  0  0  0
    7.2819   12.4728   10.9385 C   0  0  2  0  0  0  0  0  0  0  0  0
    6.3794   13.4419    4.4739 C   0  0  1  0  0  0  0  0  0  0  0  0
    7.5215   14.3898    4.1451 C   0  0  0  0  0  0  0  0  0  0  0  0
    8.0308   14.9821    5.3970 C   0  0  0  0  0  0  0  0  0  0  0  0
    7.3185   15.7190    6.0615 O   0  0  0  0  0  0  0  0  0  0  0  0
  1  2  1  0
  2  3  1  0
  3  4  1  0
  4  5  1  0
  5  6  1  6
  5  7  1  0
  8  7  1  6
  8  9  1  0
  9 10  1  0
 10 11  1  0
 11 12  1  6
 12 13  2  0
 11 14  1  0
 14 15  1  1
 14 16  1  0
 16 17  1  1
 17 18  1  0
 16 19  1  0
 20 19  1  6
 20 21  1  0
 21 22  1  0
 22 23  1  0
 20 24  1  0
 24 25  1  1
 25 26  1  0
 26 27  1  0
 27 28  1  0
 28 29  1  0
 29 30  1  0
 30 31  1  0
 31 32  1  0
 32 33  2  3
 33 34  1  0
 34 35  1  0
 35 36  1  0
 36 37  1  0
 37 38  1  0
 24 39  1  0
 39 40  1  1
 40 41  1  0
 41 42  1  0
 42 43  1  0
 43 44  1  0
 44 45  1  0
 45 46  1  0
 46 47  1  0
 47 48  1  1
 47 49  1  0
  8 50  1  0
 50 51  1  6
 51 52  1  0
 52 53  2  0
  1 23  1  1
 50  1  1  0
 49 39  1  0
 49 48  1  1
M  RAD  8   3   2   7   2   9   2  19   2  23   2  25   2  26   2  29   2
M  RAD  6  34   2  35   2  37   2  42   2  43   2  45   2
M  END
>  <docking_score>  (1) 
0.82599999999999996

$$$$
