
     RDKit          3D

 16 16  0  0  0  0  0  0  0  0999 V2000
    6.7442   12.7689    1.0457 C   0  0  0  0  0  0  0  0  0  0  0  0
    5.8779   12.4695    2.2203 C   0  0  1  0  0  0  0  0  0  0  0  0
    5.2692   11.1242    2.2139 C   0  0  0  0  0  0  0  0  0  0  0  0
    6.0274   10.0677    2.9575 C   0  0  2  0  0  0  0  0  0  0  0  0
    5.1274    9.0644    3.3125 O   0  0  0  0  0  0  0  0  0  0  0  0
    6.6690   10.5732    4.2247 C   0  0  2  0  0  0  0  0  0  0  0  0
    6.6236    9.6509    5.2649 O   0  0  0  0  0  0  0  0  0  0  0  0
    5.9553   11.8786    4.5669 C   0  0  1  0  0  0  0  0  0  0  0  0
    6.2063   12.3110    5.8530 O   0  0  0  0  0  0  0  0  0  0  0  0
    6.5006   12.8827    3.5333 C   0  0  1  0  0  0  0  0  0  0  0  0
    7.8950   12.6002    3.4377 N   0  0  0  0  0  0  0  0  0  0  0  0
    8.7843   13.6132    3.9431 C   0  0  0  0  0  3  0  0  0  0  0  0
    8.0818   14.9247    4.0682 C   0  0  0  0  0  0  0  0  0  0  0  0
    8.0922   15.6368    2.8753 O   0  0  0  0  0  0  0  0  0  0  0  0
    9.3172   15.7846    2.2068 C   0  0  0  0  0  0  0  0  0  0  0  0
    9.5000   15.1542    1.1117 O   0  0  0  0  0  0  0  0  0  0  0  0
  2  1  1  6
  2  3  1  0
  3  4  1  0
  4  5  1  1
  4  6  1  0
  6  7  1  1
  6  8  1  0
  8  9  1  1
  8 10  1  0
 10 11  1  6
 11 12  1  0
 12 13  1  0
 13 14  1  0
 14 15  1  0
 15 16  2  0
 10  2  1  0
M  RAD  1  12   2
M  END
>  <docking_score>  (1) 
-3.9489999999999998

$$$$

     RDKit          3D

 16 16  0  0  0  0  0  0  0  0999 V2000
   18.1196   -5.6682   -2.7698 C   0  0  0  0  0  0  0  0  0  0  0  0
   16.7661   -5.0500   -2.8443 C   0  0  1  0  0  0  0  0  0  0  0  0
   16.5967   -3.8299   -2.0299 C   0  0  0  0  0  0  0  0  0  0  0  0
   16.8336   -2.5359   -2.7466 C   0  0  2  0  0  0  0  0  0  0  0  0
   16.1469   -1.5350   -2.0614 O   0  0  0  0  0  0  0  0  0  0  0  0
   16.3327   -2.5404   -4.1685 C   0  0  2  0  0  0  0  0  0  0  0  0
   15.7724   -1.3268   -4.5536 O   0  0  0  0  0  0  0  0  0  0  0  0
   15.3436   -3.6993   -4.2635 C   0  0  1  0  0  0  0  0  0  0  0  0
   14.5668   -3.6551   -5.4031 O   0  0  0  0  0  0  0  0  0  0  0  0
   16.2384   -4.9536   -4.2567 C   0  0  1  0  0  0  0  0  0  0  0  0
   17.3470   -4.6260   -5.0917 N   0  0  0  0  0  0  0  0  0  0  0  0
   17.4470   -5.3546   -6.3293 C   0  0  0  0  0  3  0  0  0  0  0  0
   18.7698   -6.0382   -6.4397 C   0  0  0  0  0  0  0  0  0  0  0  0
   18.7746   -7.2700   -5.7970 O   0  0  0  0  0  0  0  0  0  0  0  0
   17.6719   -8.1167   -5.9872 C   0  0  0  0  0  0  0  0  0  0  0  0
   17.6150   -8.8230   -7.0493 O   0  0  0  0  0  0  0  0  0  0  0  0
  2  1  1  6
  2  3  1  0
  3  4  1  0
  4  5  1  1
  4  6  1  0
  6  7  1  1
  6  8  1  0
  8  9  1  6
  8 10  1  0
 10 11  1  6
 11 12  1  0
 12 13  1  0
 13 14  1  0
 14 15  1  0
 15 16  2  0
 10  2  1  0
M  RAD  1  12   2
M  END
>  <docking_score>  (2) 
-3.7389999999999999

$$$$

     RDKit          3D

 16 16  0  0  0  0  0  0  0  0999 V2000
   15.4787   -1.6689   -6.3817 C   0  0  0  0  0  0  0  0  0  0  0  0
   15.0168   -2.4970   -5.2325 C   0  0  1  0  0  0  0  0  0  0  0  0
   14.4808   -3.8228   -5.6004 C   0  0  0  0  0  0  0  0  0  0  0  0
   15.4634   -4.9527   -5.5560 C   0  0  2  0  0  0  0  0  0  0  0  0
   14.7468   -6.1373   -5.3949 O   0  0  0  0  0  0  0  0  0  0  0  0
   16.4389   -4.8512   -4.4110 C   0  0  2  0  0  0  0  0  0  0  0  0
   16.7402   -6.0832   -3.8400 O   0  0  0  0  0  0  0  0  0  0  0  0
   15.8170   -3.8783   -3.4123 C   0  0  1  0  0  0  0  0  0  0  0  0
   16.4286   -3.9086   -2.1757 O   0  0  0  0  0  0  0  0  0  0  0  0
   15.9913   -2.4998   -4.0780 C   0  0  1  0  0  0  0  0  0  0  0  0
   17.3010   -2.5200   -4.6414 N   0  0  0  0  0  0  0  0  0  0  0  0
   18.2866   -1.6996   -3.9870 C   0  0  0  0  0  3  0  0  0  0  0  0
   19.5955   -2.4117   -3.8934 C   0  0  0  0  0  0  0  0  0  0  0  0
   20.0871   -2.4288   -2.5939 O   0  0  0  0  0  0  0  0  0  0  0  0
   19.7553   -3.5214   -1.7784 C   0  0  0  0  0  0  0  0  0  0  0  0
   19.6177   -4.6710   -2.3165 O   0  0  0  0  0  0  0  0  0  0  0  0
  2  1  1  6
  2  3  1  0
  3  4  1  0
  4  5  1  1
  4  6  1  0
  6  7  1  1
  6  8  1  0
  8  9  1  1
  8 10  1  0
 10 11  1  6
 11 12  1  0
 12 13  1  0
 13 14  1  0
 14 15  1  0
 15 16  2  0
 10  2  1  0
M  RAD  1  12   2
M  END
>  <docking_score>  (3) 
-3.593

$$$$
