
     RDKit          3D

 46 50  0  0  0  0  0  0  0  0999 V2000
   17.3057   -2.6646   -4.6649 C   0  0  2  0  0  0  0  0  0  0  0  0
   16.1641   -3.1397   -4.0563 O   0  0  0  0  0  0  0  0  0  0  0  0
   16.5309   -4.1784   -3.2007 C   0  0  0  0  0  0  0  0  0  0  0  0
   16.5777   -5.4299   -4.0117 C   0  0  2  0  0  0  0  0  0  0  0  0
   15.2931   -5.9332   -4.1875 O   0  0  0  0  0  0  0  0  0  0  0  0
   17.4211   -6.5190   -3.4112 C   0  0  2  0  0  0  0  0  0  0  0  0
   18.6675   -6.0739   -3.0284 O   0  0  0  0  0  0  0  0  0  0  0  0
   17.5254   -7.6194   -4.4771 C   0  0  1  0  0  0  0  0  0  0  0  0
   16.3130   -7.6317   -5.1398 O   0  0  0  0  0  0  0  0  0  0  0  0
   18.6007   -7.1257   -5.4503 C   0  0  1  0  0  0  0  0  0  0  0  0
   19.8530   -7.1684   -4.6760 N   0  0  0  0  0  0  0  0  0  0  0  0
   20.1061   -8.5666   -4.4911 C   0  0  0  0  0  3  0  0  0  0  0  0
   19.4537   -9.2978   -5.6549 C   0  0  0  0  0  0  0  0  0  0  0  0
   18.9031   -8.1921   -6.4891 C   0  0  2  0  0  0  0  0  0  0  0  0
   20.0392   -7.6452   -7.3416 C   0  0  0  0  0  0  0  0  0  0  0  0
   20.3180   -8.5142   -8.5321 C   0  0  0  0  0  0  0  0  0  0  0  0
   20.4906   -9.8277   -8.0718 O   0  0  0  0  0  0  0  0  0  0  0  0
   19.5520  -10.6091   -8.7387 C   0  0  0  0  0  0  0  0  0  0  0  0
   19.1311  -11.7353   -7.9391 N   0  0  0  0  0  0  0  0  0  0  0  0
   17.7065  -11.9475   -8.1219 C   0  0  0  0  0  3  0  0  0  0  0  0
   17.0437  -11.7879   -6.9023 O   0  0  0  0  0  0  0  0  0  0  0  0
   17.5957  -10.6282   -6.3193 C   0  0  0  0  0  0  0  0  0  0  0  0
   16.9328   -9.5457   -6.8411 O   0  0  0  0  0  0  0  0  0  0  0  0
   17.7384   -8.5498   -7.3328 C   0  0  1  0  0  0  0  0  0  0  0  0
   16.9817   -7.4542   -7.6825 O   0  0  0  0  0  0  0  0  0  0  0  0
   17.7428   -6.4549   -8.1049 O   0  0  0  0  0  0  0  0  0  0  0  0
   17.3677   -5.3541   -7.4129 N   0  0  0  0  0  3  0  0  0  0  0  0
   16.1824   -4.9257   -7.9192 O   0  0  0  0  0  0  0  0  0  0  0  0
   18.3669   -4.3270   -7.7005 C   0  0  0  0  0  3  0  0  0  0  0  0
   18.0856   -3.2482   -6.8526 O   0  0  0  0  0  0  0  0  0  0  0  0
   18.0082   -3.6598   -5.5221 C   0  0  1  0  0  0  0  0  0  0  0  0
   19.2387   -3.3815   -4.9007 O   0  0  0  0  0  0  0  0  0  0  0  0
   18.5129   -2.9164   -3.8118 C   0  0  1  0  0  0  0  0  0  0  0  0
   18.9999   -1.7941   -3.1837 O   0  0  0  0  0  0  0  0  0  0  0  0
   20.2485   -1.4768   -3.7044 C   0  0  2  0  0  0  0  0  0  0  0  0
   21.2837   -1.9477   -2.9375 O   0  0  0  0  0  0  0  0  0  0  0  0
   20.2780    0.0321   -3.8820 C   0  0  2  0  0  0  0  0  0  0  0  0
   20.5699    0.6690   -2.7013 F   0  0  0  0  0  0  0  0  0  0  0  0
   18.8796    0.4125   -4.3815 C   0  0  0  0  0  0  0  0  0  0  0  0
   18.5009   -0.5901   -5.4196 C   0  0  2  0  0  0  0  0  0  0  0  0
   18.4357    0.0710   -6.6580 O   0  0  0  0  0  0  0  0  0  0  0  0
   17.2080   -1.2761   -5.1974 C   0  0  2  0  0  0  0  0  0  0  0  0
   16.2819   -0.5648   -4.4734 O   0  0  0  0  0  0  0  0  0  0  0  0
   15.2520   -0.1980   -5.3688 C   0  0  2  0  0  0  0  0  0  0  0  0
   15.0924   -1.2573   -6.4451 C   0  0  0  0  0  2  0  0  0  0  0  0
   15.4984    1.0601   -5.9200 O   0  0  0  0  0  0  0  0  0  0  0  0
  1  2  1  1
  2  3  1  0
  3  4  1  0
  4  5  1  1
  4  6  1  0
  6  7  1  6
  6  8  1  0
  8  9  1  6
  8 10  1  0
 10 11  1  1
 11 12  1  0
 12 13  1  0
 14 13  1  1
 14 15  1  0
 15 16  1  0
 16 17  1  0
 17 18  1  0
 18 19  1  0
 19 20  1  0
 20 21  1  0
 21 22  1  0
 22 23  1  0
 24 23  1  1
 24 25  1  0
 25 26  1  0
 26 27  1  0
 27 28  1  0
 27 29  1  0
 29 30  1  0
 31 30  1  6
 31 32  1  0
 33 32  1  6
 33 34  1  0
 34 35  1  0
 35 36  1  1
 35 37  1  0
 37 38  1  1
 37 39  1  0
 39 40  1  0
 40 41  1  6
 40 42  1  0
 42 43  1  1
 43 44  1  0
 44 45  1  6
 44 46  1  0
 31  1  1  0
 33  1  1  0
 42  1  1  0
 14 10  1  0
 24 14  1  0
M  CHG  1  27   1
M  RAD  5  12   2  20   2  27   2  29   2  45   3
M  END
>  <docking_score>  (1) 
1.028

$$$$
