
     RDKit          3D

 11 11  0  0  0  0  0  0  0  0999 V2000
    6.8214    2.3610   -4.8698 O   0  0  0  0  0  0  0  0  0  0  0  0
    6.1011    2.1585   -6.0607 C   0  0  0  0  0  0  0  0  0  0  0  0
    6.6486    0.8851   -6.7097 C   0  0  2  0  0  0  0  0  0  0  0  0
    6.0156    0.7214   -7.9580 N   0  0  0  0  0  0  0  0  0  0  0  0
    5.8557   -0.5618   -8.4858 C   0  0  0  0  0  0  0  0  0  0  0  0
    6.0989   -1.7055   -7.5662 C   0  0  2  0  0  0  0  0  0  0  0  0
    5.6380   -2.9013   -8.0248 O   0  0  0  0  0  0  0  0  0  0  0  0
    5.5559   -1.3128   -6.2108 C   0  0  1  0  0  0  0  0  0  0  0  0
    5.5629   -2.3802   -5.3523 O   0  0  0  0  0  0  0  0  0  0  0  0
    6.5047   -0.2164   -5.7218 C   0  0  1  0  0  0  0  0  0  0  0  0
    7.7531   -0.7481   -5.4482 O   0  0  0  0  0  0  0  0  0  0  0  0
  1  2  1  0
  3  2  1  1
  3  4  1  0
  4  5  1  0
  5  6  1  0
  6  7  1  6
  6  8  1  0
  8  9  1  1
  8 10  1  0
 10 11  1  6
 10  3  1  0
M  END
>  <docking_score>  (1) 
-4.4180000000000001

$$$$

     RDKit          3D

 11 11  0  0  0  0  0  0  0  0999 V2000
    5.1620   -4.2314   -6.7418 O   0  0  0  0  0  0  0  0  0  0  0  0
    4.8822   -2.9676   -7.2919 C   0  0  0  0  0  0  0  0  0  0  0  0
    6.0871   -2.0702   -7.0003 C   0  0  2  0  0  0  0  0  0  0  0  0
    6.3737   -2.1536   -5.6231 N   0  0  0  0  0  0  0  0  0  0  0  0
    6.9806   -1.0728   -4.9795 C   0  0  0  0  0  0  0  0  0  0  0  0
    7.0230    0.2170   -5.7196 C   0  0  2  0  0  0  0  0  0  0  0  0
    7.3350    1.2951   -4.9495 O   0  0  0  0  0  0  0  0  0  0  0  0
    5.7141    0.3480   -6.4649 C   0  0  1  0  0  0  0  0  0  0  0  0
    5.5879    1.5951   -7.0176 O   0  0  0  0  0  0  0  0  0  0  0  0
    5.7853   -0.7241   -7.5543 C   0  0  1  0  0  0  0  0  0  0  0  0
    6.7470   -0.3924   -8.4930 O   0  0  0  0  0  0  0  0  0  0  0  0
  1  2  1  0
  3  2  1  1
  3  4  1  0
  4  5  1  0
  5  6  1  0
  6  7  1  1
  6  8  1  0
  8  9  1  6
  8 10  1  0
 10 11  1  6
 10  3  1  0
M  END
>  <docking_score>  (2) 
-4.0289999999999999

$$$$

     RDKit          3D

 11 11  0  0  0  0  0  0  0  0999 V2000
   13.8379    0.3091   -4.9235 O   0  0  0  0  0  0  0  0  0  0  0  0
   14.7631   -0.6062   -5.4567 C   0  0  0  0  0  0  0  0  0  0  0  0
   14.7196   -1.8579   -4.5771 C   0  0  2  0  0  0  0  0  0  0  0  0
   15.6027   -1.6657   -3.4959 N   0  0  0  0  0  0  0  0  0  0  0  0
   16.2051   -2.7726   -2.8939 C   0  0  0  0  0  0  0  0  0  0  0  0
   16.1092   -4.0698   -3.6158 C   0  0  2  0  0  0  0  0  0  0  0  0
   16.9581   -5.0302   -3.1580 O   0  0  0  0  0  0  0  0  0  0  0  0
   16.2513   -3.7718   -5.0913 C   0  0  1  0  0  0  0  0  0  0  0  0
   16.3690   -4.9287   -5.8154 O   0  0  0  0  0  0  0  0  0  0  0  0
   14.9637   -3.0305   -5.4575 C   0  0  1  0  0  0  0  0  0  0  0  0
   13.8788   -3.8872   -5.3854 O   0  0  0  0  0  0  0  0  0  0  0  0
  1  2  1  0
  3  2  1  6
  3  4  1  0
  4  5  1  0
  5  6  1  0
  6  7  1  1
  6  8  1  0
  8  9  1  6
  8 10  1  0
 10 11  1  1
 10  3  1  0
M  END
>  <docking_score>  (3) 
-3.589

$$$$
