
     RDKit          3D

 61 61  0  0  0  0  0  0  0  0999 V2000
   14.5590   -3.0192   -6.9825 C   0  0  0  0  0  0  0  0  0  0  0  0
   15.5989   -2.2375   -7.7459 C   0  0  1  0  0  0  0  0  0  0  0  0
   14.8820   -1.3349   -8.7174 C   0  0  0  0  0  0  0  0  0  0  0  0
   16.4577   -1.3796   -6.8527 C   0  0  0  0  0  0  0  0  0  0  0  0
   17.0843   -2.1458   -5.7294 C   0  0  0  0  0  0  0  0  0  0  0  0
   18.4361   -2.6975   -6.0634 C   0  0  0  0  0  0  0  0  0  0  0  0
   18.3476   -3.9681   -6.8778 C   0  0  1  0  0  0  0  0  0  0  0  0
   18.6999   -3.6310   -8.3083 C   0  0  0  0  0  0  0  0  0  0  0  0
   19.2839   -5.0391   -6.3833 C   0  0  2  0  0  0  0  0  0  0  0  0
   20.4929   -4.4477   -5.6864 C   0  0  0  0  0  2  0  0  0  0  0  0
   19.7649   -5.9231   -7.5008 C   0  0  0  0  0  0  0  0  0  0  0  0
   18.6295   -6.2584   -8.4439 C   0  0  0  0  0  0  0  0  0  0  0  0
   17.3420   -6.3280   -7.6723 C   0  0  0  0  0  3  0  0  0  0  0  0
   17.0345   -7.7946   -7.3701 C   0  0  0  0  0  0  0  0  0  0  0  0
   16.8320   -7.9941   -5.9034 C   0  0  2  0  0  0  0  0  0  0  0  0
   18.1310   -7.9776   -5.1263 C   0  0  0  0  0  0  0  0  0  0  0  0
   15.9482   -9.1258   -5.5305 C   0  0  1  0  0  0  0  0  0  0  0  0
   16.6065  -10.1547   -4.6570 C   0  0  0  0  0  3  0  0  0  0  0  0
   17.0083  -11.3904   -5.3957 C   0  0  0  0  0  0  0  0  0  0  0  0
   16.5633  -11.3579   -6.7182 O   0  0  0  0  0  0  0  0  0  0  0  0
   17.6177  -11.6143   -7.5660 C   0  0  0  0  0  0  0  0  0  0  0  0
   17.3934  -12.9728   -8.2212 C   0  0  1  0  0  0  0  0  0  0  0  0
   18.7209  -13.7024   -8.3141 C   0  0  0  0  0  2  0  0  0  0  0  0
   16.5408  -13.6802   -7.3689 O   0  0  0  0  0  0  0  0  0  0  0  0
   16.8323  -15.0333   -7.4637 C   0  0  0  0  0  0  0  0  0  0  0  0
   14.5924   -8.7248   -5.1017 C   0  0  1  0  0  0  0  0  0  0  0  0
   13.9955   -9.5626   -4.0118 C   0  0  0  0  0  3  0  0  0  0  0  0
   12.5352   -9.3907   -3.8293 C   0  0  0  0  0  3  0  0  0  0  0  0
   11.7458  -10.6312   -3.6417 C   0  0  0  0  0  3  0  0  0  0  0  0
   10.6632  -10.8592   -4.6809 C   0  0  1  0  0  0  0  0  0  0  0  0
   11.2045  -11.7875   -5.7782 C   0  0  0  0  0  2  0  0  0  0  0  0
    9.6404  -11.6566   -3.9847 N   0  0  0  0  0  0  0  0  0  0  0  0
    8.8705  -12.4388   -4.8980 C   0  0  1  0  0  0  0  0  0  0  0  0
    8.8485  -13.8785   -4.4978 C   0  0  0  0  0  2  0  0  0  0  0  0
    7.5009  -11.8381   -5.0401 C   0  0  0  0  0  3  0  0  0  0  0  0
    7.5569  -10.4651   -5.6957 C   0  0  0  0  0  3  0  0  0  0  0  0
    6.5864  -10.4062   -6.8457 C   0  0  0  0  0  0  0  0  0  0  0  0
    5.7315  -11.6722   -6.7927 C   0  0  0  0  0  3  0  0  0  0  0  0
    5.2984  -11.8690   -5.3617 C   0  0  0  0  0  3  0  0  0  0  0  0
    4.2888  -12.9992   -5.2253 C   0  0  1  0  0  0  0  0  0  0  0  0
    2.9064  -12.4270   -5.0255 C   0  0  1  0  0  0  0  0  0  0  0  0
    2.8108  -11.8516   -3.6367 C   0  0  0  0  0  2  0  0  0  0  0  0
    2.6313  -11.3484   -5.9770 N   0  0  0  0  0  0  0  0  0  0  0  0
    4.2911  -13.7927   -6.5025 C   0  0  0  0  0  3  0  0  0  0  0  0
    3.7428  -15.1972   -6.2577 C   0  0  0  0  0  0  0  0  0  0  0  0
   14.6025   -7.2703   -4.6848 C   0  0  0  0  0  3  0  0  0  0  0  0
   14.9032   -7.1519   -3.2186 C   0  0  0  0  0  3  0  0  0  0  0  0
   15.4390   -5.7820   -2.8528 C   0  0  0  0  0  3  0  0  0  0  0  0
   15.7999   -5.0004   -4.1094 C   0  0  0  0  0  3  0  0  0  0  0  0
   14.7040   -4.9909   -5.0568 N   0  0  0  0  0  0  0  0  0  0  0  0
   13.9134   -3.8049   -4.7704 C   0  0  0  0  0  3  0  0  0  0  0  0
   14.4726   -2.5979   -5.5349 C   0  0  2  0  0  0  0  0  0  0  0  0
   13.4537   -1.4799   -5.3475 C   0  0  0  0  0  3  0  0  0  0  0  0
   12.8901   -1.4997   -3.9575 C   0  0  0  0  0  3  0  0  0  0  0  0
   11.9646   -0.3445   -3.7539 C   0  0  0  0  0  3  0  0  0  0  0  0
   10.7270   -0.5575   -4.5919 C   0  0  0  0  0  3  0  0  0  0  0  0
    9.5439   -0.8932   -3.7166 C   0  0  1  0  0  0  0  0  0  0  0  0
    9.9033   -0.6423   -2.2694 C   0  0  0  0  0  2  0  0  0  0  0  0
    8.4132   -0.0916   -4.0797 N   0  0  0  0  0  0  0  0  0  0  0  0
    8.0604   -0.3242   -5.4826 C   0  0  0  0  0  3  0  0  0  0  0  0
    7.0443    0.7165   -5.9179 C   0  0  0  0  0  2  0  0  0  0  0  0
  1  2  1  0
  2  3  1  6
  2  4  1  0
  4  5  1  0
  5  6  1  0
  6  7  1  0
  7  8  1  6
  7  9  1  0
  9 10  1  6
  9 11  1  0
 11 12  1  0
 12 13  1  0
 13 14  1  0
 14 15  1  0
 15 16  1  1
 15 17  1  0
 17 18  1  1
 18 19  1  0
 19 20  1  0
 20 21  1  0
 21 22  1  0
 22 23  1  1
 22 24  1  0
 24 25  1  0
 17 26  1  0
 26 27  1  1
 27 28  1  0
 28 29  1  0
 29 30  1  0
 30 31  1  6
 30 32  1  0
 32 33  1  0
 33 34  1  1
 33 35  1  0
 35 36  1  0
 36 37  1  0
 37 38  1  0
 38 39  1  0
 40 39  1  6
 40 41  1  0
 41 42  1  1
 41 43  1  0
 40 44  1  0
 44 45  1  0
 26 46  1  0
 46 47  1  0
 47 48  1  0
 48 49  1  0
 49 50  1  0
 50 51  1  0
 51 52  1  0
 52 53  1  6
 53 54  1  0
 54 55  1  0
 55 56  1  0
 56 57  1  0
 57 58  1  1
 57 59  1  0
 59 60  1  0
 60 61  1  0
 52  1  1  0
M  RAD  8  10   3  13   2  18   2  23   3  27   2  28   2  29   2  31   3
M  RAD  8  34   3  35   2  36   2  38   2  39   2  42   3  44   2  46   2
M  RAD  8  47   2  48   2  49   2  51   2  53   2  54   2  55   2  56   2
M  RAD  3  58   3  60   2  61   3
M  END
>  <docking_score>  (1) 
35.179000000000002

$$$$
