
     RDKit          3D

 50 53  0  0  0  0  0  0  0  0999 V2000
    7.1972    7.2598   12.0474 C   0  0  0  0  0  0  0  0  0  0  0  0
    7.1375    8.6548   12.3523 C   0  0  0  0  0  0  0  0  0  0  0  0
    6.6702    9.6670   12.5571 C   0  0  0  0  0  0  0  0  0  0  0  0
    5.8858   10.8264   12.7829 C   0  0  0  0  0  0  0  0  0  0  0  0
    4.5583   11.4077   12.6625 C   0  0  0  0  0  0  0  0  0  0  0  0
    6.3461   12.0066   13.3441 C   0  0  0  0  0  0  0  0  0  0  0  0
    7.6761   12.2996   13.8079 C   0  0  0  0  0  0  0  0  0  0  0  0
    8.5039   13.0836   13.8232 C   0  0  0  0  0  0  0  0  0  0  0  0
    9.3674   14.1191   13.7404 C   0  0  0  0  0  0  0  0  0  0  0  0
   10.6024   14.2461   14.1737 C   0  0  0  0  0  0  0  0  0  0  0  0
   11.6084   13.0466   15.0495 S   0  0  0  0  0  0  0  0  0  0  0  0
   12.8861   14.2653   15.5818 C   0  0  2  0  0  0  0  0  0  0  0  0
   13.0354   14.4511   16.9335 C   0  0  0  0  0  0  0  0  0  0  0  0
   12.9781   14.8750   18.0818 C   0  0  0  0  0  0  0  0  0  0  0  0
   12.1924   16.0724   18.2962 O   0  0  0  0  0  0  0  0  0  0  0  0
   13.5612   14.3589   19.1774 F   0  0  0  0  0  0  0  0  0  0  0  0
   11.4494   15.3925   14.0786 C   0  0  0  0  0  0  0  0  0  0  0  0
   12.5276   15.4161   14.7367 C   0  0  0  0  0  0  0  0  0  0  0  0
    5.0563   12.5857   13.1710 C   0  0  2  0  0  0  0  0  0  0  0  0
    4.4981   13.5154   14.0839 C   0  0  0  0  0  0  0  0  0  0  0  0
    5.1131   14.5445   14.7031 C   0  0  0  0  0  0  0  0  0  0  0  0
    6.5247   14.7813   14.4428 C   0  0  0  0  0  0  0  0  0  0  0  0
    4.2747   15.4063   15.6081 C   0  0  0  0  0  0  0  0  0  0  0  0
    2.9303   15.5701   14.9434 C   0  0  0  0  0  0  0  0  0  0  0  0
    2.3810   14.5399   14.3235 C   0  0  0  0  0  0  0  0  0  0  0  0
    3.0274   13.3934   14.3623 C   0  0  0  0  0  0  0  0  0  0  0  0
    2.4357   12.1499   14.7274 C   0  0  0  0  0  0  0  0  0  0  0  0
    2.4409   11.0137   14.0585 C   0  0  0  0  0  0  0  0  0  0  0  0
    3.0780   10.7899   12.8243 C   0  0  0  0  0  0  0  0  0  0  0  0
    2.8957   11.4012   11.6655 C   0  0  0  0  0  0  0  0  0  0  0  0
    3.6951   10.9195   10.5272 C   0  0  0  0  0  0  0  0  0  0  0  0
    4.3664   10.5191    9.6069 C   0  0  0  0  0  0  0  0  0  0  0  0
    5.0797   10.0694    8.5997 C   0  0  0  0  0  0  0  0  0  0  0  0
    5.2811    9.8766    7.3003 C   0  0  0  0  0  0  0  0  0  0  0  0
    6.4580   10.3377    6.8141 C   0  0  0  0  0  0  0  0  0  0  0  0
    7.2453   10.9555    7.9418 C   0  0  0  0  0  0  0  0  0  0  0  0
    7.1486   10.4828    5.5008 C   0  0  0  0  0  0  0  0  0  0  0  0
    6.4047   11.6637    4.8171 C   0  0  0  0  0  0  0  0  0  0  0  0
    5.1421   11.8899    4.5460 C   0  0  0  0  0  0  0  0  0  0  0  0
    4.9877   13.1680    3.8805 C   0  0  0  0  0  0  0  0  0  0  0  0
    5.8394   13.4927    2.9078 C   0  0  0  0  0  0  0  0  0  0  0  0
    6.9106   12.6321    2.4877 C   0  0  0  0  0  0  0  0  0  0  0  0
    7.4285   12.7096    1.2762 C   0  0  0  0  0  0  0  0  0  0  0  0
    7.4652   12.5652    0.0243 O   0  0  0  0  0  0  0  0  0  0  0  0
    3.9480   11.1129    4.8236 C   0  0  0  0  0  0  0  0  0  0  0  0
    3.5935   10.1000    5.5676 C   0  0  0  0  0  0  0  0  0  0  0  0
    4.1903    9.1854    6.5343 C   0  0  1  0  0  0  0  0  0  0  0  0
    4.7934    8.0107    5.7840 C   0  0  0  0  0  0  0  0  0  0  0  0
    3.1777    8.7152    7.5253 C   0  0  0  0  0  0  0  0  0  0  0  0
    2.9361    7.5328    7.7146 O   0  0  0  0  0  0  0  0  0  0  0  0
  1  2  1  0
  2  3  2  3
  3  4  1  0
  4  5  1  0
  4  6  2  0
  6  7  1  0
  7  8  2  3
  8  9  1  0
  9 10  2  3
 10 11  1  0
 12 11  1  1
 12 13  1  0
 13 14  2  3
 14 15  1  0
 14 16  1  0
 10 17  1  0
 17 18  2  0
  6 19  1  0
 19 20  1  1
 20 21  2  0
 21 22  1  0
 21 23  1  0
 23 24  1  0
 24 25  2  0
 25 26  2  0
 26 27  1  0
 27 28  2  3
 28 29  1  0
 29 30  2  3
 30 31  1  0
 31 32  3  0
 32 33  1  0
 33 34  1  0
 34 35  2  3
 35 36  1  0
 35 37  1  0
 37 38  1  0
 38 39  2  3
 39 40  1  0
 40 41  2  3
 41 42  1  0
 42 43  2  0
 43 44  2  0
 39 45  1  0
 45 46  2  3
 46 47  1  0
 47 48  1  6
 47 49  1  0
 49 50  2  0
 19  5  1  0
 18 12  1  0
 26 20  1  0
 47 34  1  0
M  END
>  <docking_score>  (1) 
12.695

$$$$
