
     RDKit          3D

 13 12  0  0  0  0  0  0  0  0999 V2000
   14.7144   -1.1189   -3.9461 C   0  0  0  0  0  0  0  0  0  0  0  0
   14.0671   -1.0821   -5.2093 O   0  0  0  0  0  0  0  0  0  0  0  0
   15.1219   -1.4049   -6.2305 C   0  0  0  0  0  3  0  0  0  0  0  0
   14.9729   -2.8465   -6.1461 O   0  0  0  0  0  0  0  0  0  0  0  0
   16.1758   -3.3578   -6.8182 C   0  0  2  0  0  0  0  0  0  0  0  0
   16.3300   -2.3683   -8.0255 C   0  0  0  0  0  0  0  0  0  0  0  0
   15.4320   -4.6109   -7.6395 C   0  0  0  0  0  0  0  0  0  0  0  0
   15.8308   -5.7814   -7.3300 C   0  0  0  0  0  0  0  0  0  0  0  0
   16.8110   -6.0699   -6.3620 N   0  0  0  0  0  0  0  0  0  0  0  0
   16.5998   -6.7117   -5.0579 C   0  0  0  0  0  3  0  0  0  0  0  0
   15.7562   -5.9372   -4.1345 C   0  0  0  0  0  0  0  0  0  0  0  0
   16.5194   -5.2497   -3.0784 C   0  0  0  0  0  3  0  0  0  0  0  0
   17.9243   -5.6089   -2.9109 C   0  0  0  0  0  0  0  0  0  0  0  0
  1  2  1  0
  2  3  1  0
  3  4  1  0
  4  5  1  0
  5  6  1  6
  5  7  1  0
  7  8  2  3
  8  9  1  0
  9 10  1  0
 10 11  1  0
 11 12  1  0
 12 13  1  0
M  RAD  3   3   2  10   2  12   2
M  END
>  <docking_score>  (1) 
-2.9860000000000002

$$$$

     RDKit          3D

 13 12  0  0  0  0  0  0  0  0999 V2000
   14.9458   -1.0510   -6.1174 C   0  0  0  0  0  0  0  0  0  0  0  0
   14.6208   -1.4966   -4.8090 O   0  0  0  0  0  0  0  0  0  0  0  0
   14.8532   -2.9818   -4.8020 C   0  0  0  0  0  3  0  0  0  0  0  0
   16.2158   -2.9156   -4.3055 O   0  0  0  0  0  0  0  0  0  0  0  0
   16.6968   -4.2986   -4.4320 C   0  0  2  0  0  0  0  0  0  0  0  0
   15.4636   -5.0236   -5.0754 C   0  0  0  0  0  0  0  0  0  0  0  0
   16.4297   -4.7522   -2.8444 C   0  0  0  0  0  0  0  0  0  0  0  0
   17.4785   -4.9614   -2.1507 C   0  0  0  0  0  0  0  0  0  0  0  0
   18.7977   -4.8214   -2.6210 N   0  0  0  0  0  0  0  0  0  0  0  0
   19.7962   -3.8446   -2.1670 C   0  0  0  0  0  3  0  0  0  0  0  0
   19.6251   -2.4989   -2.7361 C   0  0  0  0  0  0  0  0  0  0  0  0
   19.3181   -1.4697   -1.7277 C   0  0  0  0  0  3  0  0  0  0  0  0
   20.4063   -0.6012   -1.2889 C   0  0  0  0  0  0  0  0  0  0  0  0
  1  2  1  0
  2  3  1  0
  3  4  1  0
  4  5  1  0
  5  6  1  6
  5  7  1  0
  7  8  2  3
  8  9  1  0
  9 10  1  0
 10 11  1  0
 11 12  1  0
 12 13  1  0
M  RAD  3   3   2  10   2  12   2
M  END
>  <docking_score>  (2) 
-2.9849999999999999

$$$$

     RDKit          3D

 13 12  0  0  0  0  0  0  0  0999 V2000
   19.4153   -6.2869   -6.1021 C   0  0  0  0  0  0  0  0  0  0  0  0
   19.5943   -6.0340   -4.7164 O   0  0  0  0  0  0  0  0  0  0  0  0
   18.2839   -6.3635   -4.0574 C   0  0  0  0  0  3  0  0  0  0  0  0
   18.6312   -5.8182   -2.7576 O   0  0  0  0  0  0  0  0  0  0  0  0
   18.4729   -4.3681   -2.9381 C   0  0  2  0  0  0  0  0  0  0  0  0
   19.4777   -3.7884   -1.8824 C   0  0  0  0  0  0  0  0  0  0  0  0
   17.0720   -4.2037   -2.0391 C   0  0  0  0  0  0  0  0  0  0  0  0
   16.2502   -3.3256   -2.4616 C   0  0  0  0  0  0  0  0  0  0  0  0
   16.4387   -2.5292   -3.6067 N   0  0  0  0  0  0  0  0  0  0  0  0
   15.4034   -2.0736   -4.5435 C   0  0  0  0  0  3  0  0  0  0  0  0
   15.3970   -2.7886   -5.8292 C   0  0  0  0  0  0  0  0  0  0  0  0
   15.8064   -1.9502   -6.9693 C   0  0  0  0  0  3  0  0  0  0  0  0
   15.4394   -2.3979   -8.3093 C   0  0  0  0  0  0  0  0  0  0  0  0
  1  2  1  0
  2  3  1  0
  3  4  1  0
  4  5  1  0
  5  6  1  1
  5  7  1  0
  7  8  2  3
  8  9  1  0
  9 10  1  0
 10 11  1  0
 11 12  1  0
 12 13  1  0
M  RAD  3   3   2  10   2  12   2
M  END
>  <docking_score>  (3) 
-2.7109999999999999

$$$$
