
     RDKit          3D

  9  9  0  0  0  0  0  0  0  0999 V2000
   16.4125   -4.3582   -3.5938 C   0  0  0  0  0  0  0  0  0  0  0  0
   15.9390   -3.2134   -2.9976 O   0  0  0  0  0  0  0  0  0  0  0  0
   16.1545   -2.0719   -3.7457 C   0  0  0  0  0  3  0  0  0  0  0  0
   14.9597   -1.3338   -3.7462 O   0  0  0  0  0  0  0  0  0  0  0  0
   14.3336   -1.6396   -4.9721 C   0  0  0  0  0  0  0  0  0  0  0  0
   15.2902   -1.1892   -6.0706 C   0  0  0  0  0  0  0  0  0  0  0  0
   14.2276   -3.0446   -4.9895 O   0  0  0  0  0  0  0  0  0  0  0  0
   15.4499   -3.4998   -5.5165 C   0  0  0  0  0  3  0  0  0  0  0  0
   15.9499   -4.5888   -4.8608 O   0  0  0  0  0  0  0  0  0  0  0  0
  1  2  1  0
  2  3  1  0
  3  4  1  0
  4  5  1  0
  5  6  1  0
  5  7  1  0
  7  8  1  0
  8  9  1  0
  9  1  1  0
M  RAD  2   3   2   8   2
M  END
>  <docking_score>  (1) 
-3.2789999999999999

$$$$

     RDKit          3D

  9  9  0  0  0  0  0  0  0  0999 V2000
   13.8908   -0.0544   -4.2410 C   0  0  0  0  0  0  0  0  0  0  0  0
   13.8640   -0.5165   -5.5355 O   0  0  0  0  0  0  0  0  0  0  0  0
   15.1134   -0.8293   -6.0357 C   0  0  0  0  0  3  0  0  0  0  0  0
   15.0129   -2.0737   -6.6789 O   0  0  0  0  0  0  0  0  0  0  0  0
   15.4971   -3.0147   -5.7471 C   0  0  0  0  0  0  0  0  0  0  0  0
   16.9439   -2.6308   -5.4565 C   0  0  0  0  0  0  0  0  0  0  0  0
   14.7183   -2.8186   -4.5892 O   0  0  0  0  0  0  0  0  0  0  0  0
   15.3704   -1.7971   -3.8751 C   0  0  0  0  0  3  0  0  0  0  0  0
   14.5130   -0.8772   -3.3418 O   0  0  0  0  0  0  0  0  0  0  0  0
  1  2  1  0
  2  3  1  0
  3  4  1  0
  4  5  1  0
  5  6  1  0
  5  7  1  0
  7  8  1  0
  8  9  1  0
  9  1  1  0
M  RAD  2   3   2   8   2
M  END
>  <docking_score>  (2) 
-3.2629999999999999

$$$$

     RDKit          3D

  9  9  0  0  0  0  0  0  0  0999 V2000
   16.1132   -3.7684   -3.3574 C   0  0  0  0  0  0  0  0  0  0  0  0
   15.8305   -3.8278   -4.7015 O   0  0  0  0  0  0  0  0  0  0  0  0
   14.6344   -3.2252   -5.0410 C   0  0  0  0  0  3  0  0  0  0  0  0
   14.8676   -2.4296   -6.1746 O   0  0  0  0  0  0  0  0  0  0  0  0
   15.0267   -1.1178   -5.6825 C   0  0  0  0  0  0  0  0  0  0  0  0
   13.7208   -0.7567   -4.9831 C   0  0  0  0  0  0  0  0  0  0  0  0
   16.0604   -1.2065   -4.7290 O   0  0  0  0  0  0  0  0  0  0  0  0
   15.4233   -1.5649   -3.5271 C   0  0  0  0  0  3  0  0  0  0  0  0
   16.1034   -2.5119   -2.8154 O   0  0  0  0  0  0  0  0  0  0  0  0
  1  2  1  0
  2  3  1  0
  3  4  1  0
  4  5  1  0
  5  6  1  0
  5  7  1  0
  7  8  1  0
  8  9  1  0
  9  1  1  0
M  RAD  2   3   2   8   2
M  END
>  <docking_score>  (3) 
-3.1659999999999999

$$$$
