
     RDKit          3D

 29 32  0  0  0  0  0  0  0  0999 V2000
   12.8862   -0.2660   -4.9423 C   0  0  0  0  0  0  0  0  0  0  0  0
   13.2453   -1.6069   -5.2696 O   0  0  0  0  0  0  0  0  0  0  0  0
   14.4935   -2.1375   -4.9684 C   0  0  0  0  0  0  0  0  0  0  0  0
   15.0841   -1.6484   -3.9630 O   0  0  0  0  0  0  0  0  0  0  0  0
   15.0259   -3.1976   -5.8119 C   0  0  1  0  0  0  0  0  0  0  0  0
   15.1092   -2.8745   -7.2619 C   0  0  0  0  0  0  0  0  0  0  0  0
   14.7727   -3.9360   -8.2324 C   0  0  0  0  0  0  0  0  0  0  0  0
   15.9344   -4.9256   -8.5053 C   0  0  0  0  0  0  0  0  0  0  0  0
   16.3876   -5.3468   -7.2143 C   0  0  2  0  0  0  0  0  0  0  0  0
   17.0714   -4.1524   -6.5119 C   0  0  0  0  0  0  0  0  0  0  0  0
   16.2397   -3.8882   -5.2448 C   0  0  1  0  0  0  0  0  0  0  0  0
   16.9874   -3.1812   -4.3568 O   0  0  0  0  0  0  0  0  0  0  0  0
   17.4649   -3.9263   -3.2364 C   0  0  2  0  0  0  0  0  0  0  0  0
   18.5082   -3.1657   -2.5205 C   0  0  0  0  0  0  0  0  0  0  0  0
   18.8184   -1.9104   -3.0053 C   0  0  0  0  0  0  0  0  0  0  0  0
   19.7735   -1.1505   -2.3922 C   0  0  0  0  0  0  0  0  0  0  0  0
   20.4341   -1.6160   -1.2962 C   0  0  0  0  0  0  0  0  0  0  0  0
   21.3825   -0.8470   -0.6970 F   0  0  0  0  0  0  0  0  0  0  0  0
   20.1158   -2.8674   -0.8234 C   0  0  0  0  0  0  0  0  0  0  0  0
   19.1606   -3.6465   -1.4237 C   0  0  0  0  0  0  0  0  0  0  0  0
   17.9683   -5.2426   -3.7210 C   0  0  0  0  0  0  0  0  0  0  0  0
   18.7403   -6.2037   -3.1578 C   0  0  0  0  0  0  0  0  0  0  0  0
   19.1004   -7.3829   -3.8560 C   0  0  0  0  0  0  0  0  0  0  0  0
   18.6155   -7.5075   -5.1676 C   0  0  0  0  0  0  0  0  0  0  0  0
   18.8812   -8.5850   -5.9601 F   0  0  0  0  0  0  0  0  0  0  0  0
   17.8465   -6.5361   -5.7099 C   0  0  0  0  0  0  0  0  0  0  0  0
   17.5706   -5.4783   -4.9704 C   0  0  0  0  0  0  0  0  0  0  0  0
   17.2630   -6.4899   -7.0564 N   0  0  0  0  0  0  0  0  0  0  0  0
   17.6180   -7.5110   -7.9468 C   0  0  0  0  0  2  0  0  0  0  0  0
  1  2  1  0
  2  3  1  0
  3  4  2  0
  5  3  1  1
  5  6  1  0
  6  7  1  0
  7  8  1  0
  9  8  1  6
  9 10  1  0
 10 11  1  0
 11 12  1  1
 12 13  1  0
 13 14  1  6
 14 15  2  0
 15 16  1  0
 16 17  2  0
 17 18  1  0
 17 19  1  0
 19 20  2  0
 13 21  1  0
 21 22  1  0
 22 23  2  0
 23 24  1  0
 24 25  1  0
 24 26  2  0
 26 27  1  0
  9 28  1  0
 28 29  1  0
 11  5  1  0
 20 14  1  0
 27 21  2  0
 28 26  1  0
M  RAD  1  29   3
M  END
>  <docking_score>  (1) 
-6.3029999999999999

$$$$

     RDKit          3D

 29 32  0  0  0  0  0  0  0  0999 V2000
    2.4605   10.0897    1.2463 C   0  0  0  0  0  0  0  0  0  0  0  0
    3.6044   10.6214    1.9118 O   0  0  0  0  0  0  0  0  0  0  0  0
    4.5328    9.8131    2.5561 C   0  0  0  0  0  0  0  0  0  0  0  0
    5.4788    9.3673    1.8454 O   0  0  0  0  0  0  0  0  0  0  0  0
    4.3579    9.5398    3.9751 C   0  0  1  0  0  0  0  0  0  0  0  0
    4.6753    8.1492    4.3982 C   0  0  0  0  0  0  0  0  0  0  0  0
    3.8093    7.5152    5.4132 C   0  0  0  0  0  0  0  0  0  0  0  0
    4.1578    7.9138    6.8703 C   0  0  0  0  0  0  0  0  0  0  0  0
    4.2173    9.3442    6.8703 C   0  0  2  0  0  0  0  0  0  0  0  0
    5.4514    9.7916    6.0552 C   0  0  0  0  0  0  0  0  0  0  0  0
    4.8937   10.6173    4.8829 C   0  0  1  0  0  0  0  0  0  0  0  0
    5.8799   11.4064    4.3808 O   0  0  0  0  0  0  0  0  0  0  0  0
    5.7719   12.7928    4.7043 C   0  0  2  0  0  0  0  0  0  0  0  0
    7.0336   13.4930    4.3921 C   0  0  0  0  0  0  0  0  0  0  0  0
    8.1028   12.7171    3.9898 C   0  0  0  0  0  0  0  0  0  0  0  0
    9.3007   13.2981    3.6845 C   0  0  0  0  0  0  0  0  0  0  0  0
    9.4608   14.6476    3.7713 C   0  0  0  0  0  0  0  0  0  0  0  0
   10.6600   15.2108    3.4638 F   0  0  0  0  0  0  0  0  0  0  0  0
    8.3884   15.4088    4.1732 C   0  0  0  0  0  0  0  0  0  0  0  0
    7.1775   14.8460    4.4843 C   0  0  0  0  0  0  0  0  0  0  0  0
    5.4064   12.9177    6.1436 C   0  0  0  0  0  0  0  0  0  0  0  0
    5.4269   13.9528    7.0183 C   0  0  0  0  0  0  0  0  0  0  0  0
    5.0372   13.8001    8.3720 C   0  0  0  0  0  0  0  0  0  0  0  0
    4.6266   12.5164    8.7651 C   0  0  0  0  0  0  0  0  0  0  0  0
    4.2259   12.2193   10.0342 F   0  0  0  0  0  0  0  0  0  0  0  0
    4.6138   11.4978    7.8755 C   0  0  0  0  0  0  0  0  0  0  0  0
    4.9966   11.7505    6.6379 C   0  0  0  0  0  0  0  0  0  0  0  0
    4.2277   10.1001    8.1058 N   0  0  0  0  0  0  0  0  0  0  0  0
    3.9362    9.7217    9.4223 C   0  0  0  0  0  2  0  0  0  0  0  0
  1  2  1  0
  2  3  1  0
  3  4  2  0
  5  3  1  6
  5  6  1  0
  6  7  1  0
  7  8  1  0
  9  8  1  1
  9 10  1  0
 10 11  1  0
 11 12  1  6
 12 13  1  0
 13 14  1  1
 14 15  2  0
 15 16  1  0
 16 17  2  0
 17 18  1  0
 17 19  1  0
 19 20  2  0
 13 21  1  0
 21 22  1  0
 22 23  2  0
 23 24  1  0
 24 25  1  0
 24 26  2  0
 26 27  1  0
  9 28  1  0
 28 29  1  0
 11  5  1  0
 20 14  1  0
 27 21  2  0
 28 26  1  0
M  RAD  1  29   3
M  END
>  <docking_score>  (2) 
-5.819

$$$$

     RDKit          3D

 29 32  0  0  0  0  0  0  0  0999 V2000
    2.8914    9.6454    1.5971 C   0  0  0  0  0  0  0  0  0  0  0  0
    2.2575    8.9162    2.6461 O   0  0  0  0  0  0  0  0  0  0  0  0
    2.7797    7.7309    3.1491 C   0  0  0  0  0  0  0  0  0  0  0  0
    3.1980    6.8952    2.2975 O   0  0  0  0  0  0  0  0  0  0  0  0
    2.8097    7.5353    4.5912 C   0  0  1  0  0  0  0  0  0  0  0  0
    3.1649    6.1615    5.0388 C   0  0  0  0  0  0  0  0  0  0  0  0
    2.4470    5.6004    6.2014 C   0  0  0  0  0  0  0  0  0  0  0  0
    3.0100    6.0657    7.5689 C   0  0  0  0  0  0  0  0  0  0  0  0
    3.0899    7.4925    7.4825 C   0  0  2  0  0  0  0  0  0  0  0  0
    4.1983    7.8695    6.4742 C   0  0  0  0  0  0  0  0  0  0  0  0
    3.4878    8.6459    5.3519 C   0  0  1  0  0  0  0  0  0  0  0  0
    4.4018    9.3857    4.6701 O   0  0  0  0  0  0  0  0  0  0  0  0
    4.3625   10.7891    4.9301 C   0  0  2  0  0  0  0  0  0  0  0  0
    5.5753   11.4437    4.4009 C   0  0  0  0  0  0  0  0  0  0  0  0
    6.7851   10.8261    4.6497 C   0  0  0  0  0  0  0  0  0  0  0  0
    7.9479   11.3756    4.1895 C   0  0  0  0  0  0  0  0  0  0  0  0
    7.9342   12.5379    3.4801 C   0  0  0  0  0  0  0  0  0  0  0  0
    9.1007   13.0722    3.0287 F   0  0  0  0  0  0  0  0  0  0  0  0
    6.7230   13.1428    3.2392 C   0  0  0  0  0  0  0  0  0  0  0  0
    5.5444   12.6082    3.6919 C   0  0  0  0  0  0  0  0  0  0  0  0
    4.2127   10.9962    6.3982 C   0  0  0  0  0  0  0  0  0  0  0  0
    4.3757   12.0744    7.2032 C   0  0  0  0  0  0  0  0  0  0  0  0
    4.1853   12.0005    8.6053 C   0  0  0  0  0  0  0  0  0  0  0  0
    3.8176   10.7483    9.1229 C   0  0  0  0  0  0  0  0  0  0  0  0
    3.6020   10.5262   10.4509 F   0  0  0  0  0  0  0  0  0  0  0  0
    3.6603    9.6858    8.3012 C   0  0  0  0  0  0  0  0  0  0  0  0
    3.8623    9.8656    7.0093 C   0  0  0  0  0  0  0  0  0  0  0  0
    3.2915    8.3108    8.6605 N   0  0  0  0  0  0  0  0  0  0  0  0
    3.1895    8.0075   10.0240 C   0  0  0  0  0  2  0  0  0  0  0  0
  1  2  1  0
  2  3  1  0
  3  4  2  0
  5  3  1  6
  5  6  1  0
  6  7  1  0
  7  8  1  0
  9  8  1  1
  9 10  1  0
 10 11  1  0
 11 12  1  6
 12 13  1  0
 13 14  1  1
 14 15  2  0
 15 16  1  0
 16 17  2  0
 17 18  1  0
 17 19  1  0
 19 20  2  0
 13 21  1  0
 21 22  1  0
 22 23  2  0
 23 24  1  0
 24 25  1  0
 24 26  2  0
 26 27  1  0
  9 28  1  0
 28 29  1  0
 11  5  1  0
 20 14  1  0
 27 21  2  0
 28 26  1  0
M  RAD  1  29   3
M  END
>  <docking_score>  (3) 
-5.657

$$$$
