
     RDKit          3D

 44 46  0  0  0  0  0  0  0  0999 V2000
    6.5311   14.8679   15.5023 C   0  0  0  0  0  0  0  0  0  0  0  0
    5.2698   14.4839   16.2141 C   0  0  1  0  0  0  0  0  0  0  0  0
    4.2238   15.6112   15.9959 C   0  0  0  0  0  0  0  0  0  0  0  0
    2.8730   15.0704   16.4242 C   0  0  2  0  0  0  0  0  0  0  0  0
    2.2868   16.0574   17.1783 O   0  0  0  0  0  0  0  0  0  0  0  0
    3.0611   13.8320   17.2861 C   0  0  2  0  0  0  0  0  0  0  0  0
    3.9009   14.0865   18.3734 O   0  0  0  0  0  0  0  0  0  0  0  0
    3.6070   12.6889   16.4974 C   0  0  1  0  0  0  0  0  0  0  0  0
    2.6380   12.0703   15.7201 O   0  0  0  0  0  0  0  0  0  0  0  0
    4.6755   13.2316   15.5755 C   0  0  1  0  0  0  0  0  0  0  0  0
    3.9492   13.6643   14.3446 N   0  0  0  0  0  0  0  0  0  0  0  0
    4.9692   13.8898   13.3626 C   0  0  0  0  0  3  0  0  0  0  0  0
    5.1333   12.8484   12.3858 C   0  0  2  0  0  0  0  0  0  0  0  0
    3.8303   12.1463   11.9631 C   0  0  0  0  0  0  0  0  0  0  0  0
    6.0393   11.7903   12.7227 O   0  0  0  0  0  0  0  0  0  0  0  0
    6.6252   12.0127   13.9104 C   0  0  0  0  0  0  0  0  0  0  0  0
    7.9117   12.5575   13.8734 O   0  0  0  0  0  0  0  0  0  0  0  0
    7.9748   13.4579   12.9646 O   0  0  0  0  0  0  0  0  0  0  0  0
    9.1726   14.0025   12.6186 C   0  0  2  0  0  0  0  0  0  0  0  0
    9.3365   15.3353   13.1440 N   0  0  0  0  0  0  0  0  0  0  0  0
    9.1374   14.1808   11.1944 O   0  0  0  0  0  0  0  0  0  0  0  0
    8.0707   13.4252   10.6795 C   0  0  0  0  0  0  0  0  0  0  0  0
    6.8843   13.9301   11.1510 O   0  0  0  0  0  0  0  0  0  0  0  0
    5.7300   13.3592   11.0497 C   0  0  1  0  0  0  0  0  0  0  0  0
    5.6017   12.1601   10.2433 O   0  0  0  0  0  0  0  0  0  0  0  0
    4.4832   12.3650    9.6080 O   0  0  0  0  0  0  0  0  0  0  0  0
    4.4604   12.7001    8.3649 N   0  0  0  0  0  0  0  0  0  0  0  0
    4.4572   14.1239    8.2702 C   0  0  0  0  0  3  0  0  0  0  0  0
    3.0585   14.5322    8.1570 N   0  0  0  0  0  0  0  0  0  0  0  0
    3.0501   15.6340    7.2192 C   0  0  0  0  0  3  0  0  0  0  0  0
    2.5017   15.2614    5.9984 O   0  0  0  0  0  0  0  0  0  0  0  0
    3.4349   15.4167    4.9980 C   0  0  0  0  0  3  0  0  0  0  0  0
    3.5990   14.2505    4.2539 O   0  0  0  0  0  0  0  0  0  0  0  0
    4.8130   13.7551    4.5415 N   0  0  0  0  0  0  0  0  0  0  0  0
    4.7812   13.3174    5.9598 C   0  0  2  0  0  0  0  0  0  0  0  0
    5.9342   12.5429    6.0835 O   0  0  0  0  0  0  0  0  0  0  0  0
    3.4952   12.5801    6.1696 C   0  0  0  0  0  3  0  0  0  0  0  0
    3.3495   12.1310    7.6907 C   0  0  1  0  0  0  0  0  0  0  0  0
    3.4249   10.7271    7.5012 O   0  0  0  0  0  0  0  0  0  0  0  0
    2.3867   10.3014    6.8333 C   0  0  0  0  0  0  0  0  0  0  0  0
    2.3091    9.0789    6.2093 O   0  0  0  0  0  0  0  0  0  0  0  0
    2.2581    8.9470    4.8023 N   0  0  0  0  0  0  0  0  0  0  0  0
    2.7457    9.7994    4.0344 C   0  0  0  0  0  0  0  0  0  0  0  0
    2.7372    9.7205    2.3173 Cl  0  0  0  0  0  0  0  0  0  0  0  0
  2  1  1  6
  2  3  1  0
  3  4  1  0
  4  5  1  1
  4  6  1  0
  6  7  1  1
  6  8  1  0
  8  9  1  6
  8 10  1  0
 10 11  1  6
 11 12  1  0
 12 13  1  0
 13 14  1  6
 13 15  1  0
 15 16  1  0
 16 17  1  0
 17 18  1  0
 18 19  1  0
 19 20  1  1
 19 21  1  0
 21 22  1  0
 22 23  1  0
 23 24  1  0
 24 25  1  6
 25 26  1  0
 26 27  1  0
 27 28  1  0
 28 29  1  0
 29 30  1  0
 30 31  1  0
 31 32  1  0
 32 33  1  0
 33 34  1  0
 34 35  1  0
 35 36  1  6
 35 37  1  0
 37 38  1  0
 38 39  1  6
 39 40  1  0
 40 41  1  0
 41 42  1  0
 42 43  2  3
 43 44  1  0
 10  2  1  0
 24 13  1  0
 38 27  1  0
M  RAD  5  12   2  28   2  30   2  32   2  37   2
M  END
>  <docking_score>  (1) 
-1.0620000000000001

$$$$
