
     RDKit          3D

 30 29  0  0  0  0  0  0  0  0999 V2000
   15.4132   -5.3071   -4.8516 C   0  0  0  0  0  0  0  0  0  0  0  0
   15.7020   -5.9277   -3.4920 C   0  0  0  0  0  0  0  0  0  0  0  0
   16.6118   -5.0415   -2.6648 C   0  0  0  0  0  0  0  0  0  0  0  0
   16.3260   -7.2774   -3.7041 C   0  0  0  0  0  0  0  0  0  0  0  0
   15.5772   -7.9675   -4.8263 C   0  0  0  0  0  0  0  0  0  0  0  0
   16.6173   -8.2878   -5.9064 C   0  0  0  0  0  0  0  0  0  0  0  0
   17.6244   -7.1499   -5.8651 C   0  0  1  0  0  0  0  0  0  0  0  0
   18.8431   -7.4874   -5.0719 C   0  0  0  0  0  0  0  0  0  0  0  0
   17.8975   -6.7167   -7.2665 C   0  0  0  0  0  3  0  0  0  0  0  0
   16.6306   -6.5844   -8.0869 C   0  0  0  0  0  0  0  0  0  0  0  0
   15.5941   -5.9351   -7.1616 C   0  0  0  0  0  0  0  0  0  0  0  0
   15.3534   -4.5446   -7.7349 C   0  0  2  0  0  0  0  0  0  0  0  0
   14.2266   -4.5578   -8.7400 C   0  0  0  0  0  0  0  0  0  0  0  0
   16.6128   -3.9370   -8.2517 C   0  0  0  0  0  3  0  0  0  0  0  0
   17.4921   -3.5851   -7.0707 C   0  0  0  0  0  0  0  0  0  0  0  0
   17.5045   -2.1138   -6.9134 C   0  0  0  0  0  0  0  0  0  0  0  0
   16.7018   -1.6697   -5.7727 C   0  0  0  0  0  0  0  0  0  0  0  0
   17.1622   -1.3333   -4.4845 C   0  0  0  0  0  0  0  0  0  0  0  0
   18.2450   -1.7047   -3.7849 C   0  0  0  0  0  0  0  0  0  0  0  0
   19.5607   -1.3058   -3.4641 C   0  0  1  0  0  0  0  0  0  0  0  0
   19.7284   -0.5532   -2.3383 O   0  0  0  0  0  0  0  0  0  0  0  0
   20.4885   -2.5227   -3.3396 C   0  0  0  0  0  0  0  0  0  0  0  0
   21.2851   -2.5505   -4.6468 C   0  0  0  0  0  0  0  0  0  0  0  0
   21.3814   -3.9322   -5.2062 C   0  0  0  0  0  0  0  0  0  0  0  0
   21.3809   -4.9376   -4.0874 C   0  0  0  0  0  0  0  0  0  0  0  0
   19.9436   -5.2248   -3.6896 C   0  0  0  0  0  0  0  0  0  0  0  0
   15.3483   -1.6851   -6.0372 C   0  0  0  0  0  0  0  0  0  0  0  0
   14.4043   -1.2663   -4.9915 C   0  0  0  0  0  0  0  0  0  0  0  0
   14.0257    0.1820   -5.2515 C   0  0  0  0  0  0  0  0  0  0  0  0
   13.4548    0.9836   -3.5957 Br  0  0  0  0  0  0  0  0  0  0  0  0
  1  2  1  0
  2  3  1  0
  2  4  1  0
  4  5  1  0
  5  6  1  0
  6  7  1  0
  7  8  1  6
  7  9  1  0
  9 10  1  0
 10 11  1  0
 11 12  1  0
 12 13  1  6
 12 14  1  0
 14 15  1  0
 15 16  1  0
 16 17  1  0
 17 18  1  0
 18 19  1  0
 19 20  1  0
 20 21  1  1
 20 22  1  0
 22 23  1  0
 23 24  1  0
 24 25  1  0
 25 26  1  0
 17 27  2  3
 27 28  1  0
 28 29  1  0
 29 30  1  0
M  RAD  2   9   2  14   2
M  END
>  <docking_score>  (1) 
-0.95099999999999996

$$$$

     RDKit          3D

 30 29  0  0  0  0  0  0  0  0999 V2000
   11.4928   12.7206   13.7754 C   0  0  0  0  0  0  0  0  0  0  0  0
   10.7474   13.0103   12.4802 C   0  0  0  0  0  0  0  0  0  0  0  0
   11.5842   13.8563   11.5413 C   0  0  0  0  0  0  0  0  0  0  0  0
    9.4586   13.7056   12.8144 C   0  0  0  0  0  0  0  0  0  0  0  0
    8.8542   13.0156   14.0205 C   0  0  0  0  0  0  0  0  0  0  0  0
    8.4001   14.1286   14.9723 C   0  0  0  0  0  0  0  0  0  0  0  0
    7.0543   14.6020   14.4475 C   0  0  1  0  0  0  0  0  0  0  0  0
    6.8635   16.0750   14.5960 C   0  0  0  0  0  0  0  0  0  0  0  0
    6.8911   14.0934   13.0543 C   0  0  0  0  0  3  0  0  0  0  0  0
    7.9351   14.6532   12.1096 C   0  0  0  0  0  0  0  0  0  0  0  0
    7.2557   15.8107   11.3674 C   0  0  0  0  0  0  0  0  0  0  0  0
    6.4797   15.1620   10.2284 C   0  0  2  0  0  0  0  0  0  0  0  0
    5.3315   16.0365    9.7847 C   0  0  0  0  0  0  0  0  0  0  0  0
    6.0780   13.7656   10.5616 C   0  0  0  0  0  3  0  0  0  0  0  0
    5.0278   13.3211    9.5659 C   0  0  0  0  0  0  0  0  0  0  0  0
    5.2687   11.9007    9.2282 C   0  0  0  0  0  0  0  0  0  0  0  0
    4.3427   11.4069    8.2078 C   0  0  0  0  0  0  0  0  0  0  0  0
    3.1342   10.7134    8.4159 C   0  0  0  0  0  0  0  0  0  0  0  0
    2.5642    9.6781    7.7810 C   0  0  0  0  0  0  0  0  0  0  0  0
    2.5368    8.2671    7.7424 C   0  0  1  0  0  0  0  0  0  0  0  0
    3.6316    7.6349    7.2288 O   0  0  0  0  0  0  0  0  0  0  0  0
    2.2900    7.6842    9.1412 C   0  0  0  0  0  0  0  0  0  0  0  0
    2.6604    8.8093   10.1114 C   0  0  0  0  0  0  0  0  0  0  0  0
    3.9950    8.5787   10.7415 C   0  0  0  0  0  0  0  0  0  0  0  0
    4.0789    9.3212   12.0470 C   0  0  0  0  0  0  0  0  0  0  0  0
    3.5078   10.7151   11.8534 C   0  0  0  0  0  0  0  0  0  0  0  0
    4.8097   11.6057    6.9254 C   0  0  0  0  0  0  0  0  0  0  0  0
    3.9950   11.1643    5.7846 C   0  0  0  0  0  0  0  0  0  0  0  0
    4.7829   11.4289    4.5128 C   0  0  0  0  0  0  0  0  0  0  0  0
    4.1889   13.0935    3.7468 Br  0  0  0  0  0  0  0  0  0  0  0  0
  1  2  1  0
  2  3  1  0
  2  4  1  0
  4  5  1  0
  5  6  1  0
  6  7  1  0
  7  8  1  6
  7  9  1  0
  9 10  1  0
 10 11  1  0
 11 12  1  0
 12 13  1  1
 12 14  1  0
 14 15  1  0
 15 16  1  0
 16 17  1  0
 17 18  1  0
 18 19  1  0
 19 20  1  0
 20 21  1  1
 20 22  1  0
 22 23  1  0
 23 24  1  0
 24 25  1  0
 25 26  1  0
 17 27  2  3
 27 28  1  0
 28 29  1  0
 29 30  1  0
M  RAD  2   9   2  14   2
M  END
>  <docking_score>  (2) 
1.855

$$$$
