
     RDKit          3D

 21 20  0  0  0  0  0  0  0  0999 V2000
    9.4378   15.0566    1.1439 O   0  0  0  0  0  0  0  0  0  0  0  0
    9.1260   15.2460    2.5027 C   0  0  0  0  0  0  0  0  0  0  0  0
    9.2640   13.9481    3.2709 C   0  0  0  0  0  3  0  0  0  0  0  0
    8.0758   13.6476    4.0461 N   0  0  0  0  0  0  0  0  0  0  0  0
    7.0384   13.0296    3.2479 C   0  0  2  0  0  0  0  0  0  0  0  0
    5.8043   13.9236    3.2495 C   0  0  0  0  0  0  0  0  0  0  0  0
    5.1042   13.6876    4.4422 O   0  0  0  0  0  0  0  0  0  0  0  0
    4.8125   14.8480    5.1215 C   0  0  0  0  0  3  0  0  0  0  0  0
    4.6405   14.6309    6.4913 O   0  0  0  0  0  0  0  0  0  0  0  0
    6.6730   11.6551    3.7801 C   0  0  2  0  0  0  0  0  0  0  0  0
    7.7791   11.0661    4.3699 O   0  0  0  0  0  0  0  0  0  0  0  0
    6.0461   10.8165    2.7194 C   0  0  1  0  0  0  0  0  0  0  0  0
    6.7431   10.9602    1.5370 O   0  0  0  0  0  0  0  0  0  0  0  0
    5.7978    9.5231    3.0975 O   0  0  0  0  0  0  0  0  0  0  0  0
    4.7400    8.9934    2.5876 O   0  0  0  0  0  0  0  0  0  0  0  0
    3.8781    8.5485    3.4502 O   0  0  0  0  0  0  0  0  0  0  0  0
    4.3537    7.5510    4.2619 C   0  0  1  0  0  0  0  0  0  0  0  0
    4.5246    7.9955    5.6945 C   0  0  0  0  0  0  0  0  0  0  0  0
    3.6812    6.3536    4.1979 O   0  0  0  0  0  0  0  0  0  0  0  0
    2.6652    6.4554    3.2301 C   0  0  0  0  0  0  0  0  0  0  0  0
    3.0426    5.7816    2.0632 O   0  0  0  0  0  0  0  0  0  0  0  0
  1  2  1  0
  2  3  1  0
  3  4  1  0
  4  5  1  0
  5  6  1  1
  6  7  1  0
  7  8  1  0
  8  9  1  0
  5 10  1  0
 10 11  1  6
 10 12  1  0
 12 13  1  6
 12 14  1  0
 14 15  1  0
 15 16  1  0
 16 17  1  0
 17 18  1  1
 17 19  1  0
 19 20  1  0
 20 21  1  0
M  RAD  2   3   2   8   2
M  END
>  <docking_score>  (1) 
-3.1349999999999998

$$$$

     RDKit          3D

 21 20  0  0  0  0  0  0  0  0999 V2000
   15.1185   -1.6210   -6.4487 O   0  0  0  0  0  0  0  0  0  0  0  0
   14.4627   -2.1802   -5.3367 C   0  0  0  0  0  0  0  0  0  0  0  0
   15.4312   -2.3872   -4.1908 C   0  0  0  0  0  3  0  0  0  0  0  0
   16.5719   -1.4959   -4.2770 N   0  0  0  0  0  0  0  0  0  0  0  0
   17.8072   -2.1420   -3.8873 C   0  0  2  0  0  0  0  0  0  0  0  0
   18.0402   -1.9226   -2.3975 C   0  0  0  0  0  0  0  0  0  0  0  0
   18.4879   -3.1341   -1.8495 O   0  0  0  0  0  0  0  0  0  0  0  0
   19.7321   -3.0246   -1.2723 C   0  0  0  0  0  3  0  0  0  0  0  0
   20.5797   -4.0738   -1.6379 O   0  0  0  0  0  0  0  0  0  0  0  0
   18.9886   -1.6011   -4.6732 C   0  0  2  0  0  0  0  0  0  0  0  0
   18.5809   -0.5506   -5.4784 O   0  0  0  0  0  0  0  0  0  0  0  0
   19.6822   -2.6891   -5.4193 C   0  0  1  0  0  0  0  0  0  0  0  0
   20.8450   -3.0382   -4.7631 O   0  0  0  0  0  0  0  0  0  0  0  0
   18.8719   -3.7371   -5.7693 O   0  0  0  0  0  0  0  0  0  0  0  0
   19.3377   -4.9076   -5.5002 O   0  0  0  0  0  0  0  0  0  0  0  0
   18.5385   -5.8931   -5.7742 O   0  0  0  0  0  0  0  0  0  0  0  0
   17.6413   -6.1869   -4.7799 C   0  0  1  0  0  0  0  0  0  0  0  0
   18.2650   -6.1644   -3.4053 C   0  0  0  0  0  0  0  0  0  0  0  0
   16.4695   -5.4681   -4.7975 O   0  0  0  0  0  0  0  0  0  0  0  0
   15.4386   -6.2688   -4.2727 C   0  0  0  0  0  0  0  0  0  0  0  0
   15.3642   -7.4780   -4.9730 O   0  0  0  0  0  0  0  0  0  0  0  0
  1  2  1  0
  2  3  1  0
  3  4  1  0
  4  5  1  0
  5  6  1  1
  6  7  1  0
  7  8  1  0
  8  9  1  0
  5 10  1  0
 10 11  1  6
 10 12  1  0
 12 13  1  1
 12 14  1  0
 14 15  1  0
 15 16  1  0
 16 17  1  0
 17 18  1  1
 17 19  1  0
 19 20  1  0
 20 21  1  0
M  RAD  2   3   2   8   2
M  END
>  <docking_score>  (2) 
-3.0649999999999999

$$$$

     RDKit          3D

 21 20  0  0  0  0  0  0  0  0999 V2000
   16.5939   -3.5930   -8.7399 O   0  0  0  0  0  0  0  0  0  0  0  0
   15.4726   -4.4410   -8.6872 C   0  0  0  0  0  0  0  0  0  0  0  0
   15.6722   -5.5309   -7.6546 C   0  0  0  0  0  3  0  0  0  0  0  0
   17.0388   -6.0160   -7.6352 N   0  0  0  0  0  0  0  0  0  0  0  0
   17.7161   -5.7065   -6.3939 C   0  0  2  0  0  0  0  0  0  0  0  0
   18.9733   -4.9000   -6.6957 C   0  0  0  0  0  0  0  0  0  0  0  0
   18.9871   -3.7890   -5.8390 O   0  0  0  0  0  0  0  0  0  0  0  0
   20.2334   -3.5468   -5.3085 C   0  0  0  0  0  3  0  0  0  0  0  0
   20.3334   -2.2683   -4.7534 O   0  0  0  0  0  0  0  0  0  0  0  0
   18.0893   -6.9681   -5.6357 C   0  0  2  0  0  0  0  0  0  0  0  0
   17.5666   -8.0786   -6.2773 O   0  0  0  0  0  0  0  0  0  0  0  0
   17.6975   -6.8696   -4.2010 C   0  0  1  0  0  0  0  0  0  0  0  0
   18.8271   -6.8456   -3.4086 O   0  0  0  0  0  0  0  0  0  0  0  0
   16.7763   -5.8908   -3.9348 O   0  0  0  0  0  0  0  0  0  0  0  0
   17.2071   -4.9077   -3.2225 O   0  0  0  0  0  0  0  0  0  0  0  0
   16.2847   -4.2158   -2.6264 O   0  0  0  0  0  0  0  0  0  0  0  0
   16.1357   -2.9401   -3.1063 C   0  0  1  0  0  0  0  0  0  0  0  0
   16.9822   -1.9343   -2.3640 C   0  0  0  0  0  0  0  0  0  0  0  0
   16.2767   -2.7901   -4.4656 O   0  0  0  0  0  0  0  0  0  0  0  0
   15.0006   -2.8022   -5.0578 C   0  0  0  0  0  0  0  0  0  0  0  0
   14.2606   -1.6943   -4.6298 O   0  0  0  0  0  0  0  0  0  0  0  0
  1  2  1  0
  2  3  1  0
  3  4  1  0
  4  5  1  0
  5  6  1  6
  6  7  1  0
  7  8  1  0
  8  9  1  0
  5 10  1  0
 10 11  1  6
 10 12  1  0
 12 13  1  1
 12 14  1  0
 14 15  1  0
 15 16  1  0
 16 17  1  0
 17 18  1  1
 17 19  1  0
 19 20  1  0
 20 21  1  0
M  RAD  2   3   2   8   2
M  END
>  <docking_score>  (3) 
-2.9199999999999999

$$$$
