
     RDKit          3D

 25 27  0  0  0  0  0  0  0  0999 V2000
   21.3816   -3.9535   -2.2920 C   0  0  0  0  0  0  0  0  0  0  0  0
   20.9437   -3.5126   -1.0485 C   0  0  0  0  0  0  0  0  0  0  0  0
   20.0213   -2.3124   -1.2691 C   0  0  0  0  0  0  0  0  0  0  0  0
   18.8553   -2.5958   -1.8103 C   0  0  0  0  0  0  0  0  0  0  0  0
   17.8407   -1.6363   -2.1275 C   0  0  0  0  0  0  0  0  0  0  0  0
   16.7046   -2.3318   -2.5323 C   0  0  0  0  0  0  0  0  0  0  0  0
   15.5905   -1.6684   -2.9260 C   0  0  0  0  0  0  0  0  0  0  0  0
   14.8170   -0.9774   -3.6048 C   0  0  0  0  0  0  0  0  0  0  0  0
   14.1647   -0.2694   -4.3974 F   0  0  0  0  0  0  0  0  0  0  0  0
   16.1477   -1.1016   -4.8536 C   0  0  0  0  0  0  0  0  0  0  0  0
   15.9058   -2.0640   -5.5942 C   0  0  0  0  0  0  0  0  0  0  0  0
   14.9964   -2.9940   -5.7152 C   0  0  0  0  0  0  0  0  0  0  0  0
   14.3483   -3.8641   -5.9968 C   0  0  0  0  0  0  0  0  0  0  0  0
   13.0528   -4.7402   -5.6630 C   0  0  0  0  0  0  0  0  0  0  0  0
   13.9209   -6.0159   -5.8664 C   0  0  0  0  0  0  0  0  0  0  0  0
   15.4234   -5.5930   -6.2208 C   0  0  0  0  0  0  0  0  0  0  0  0
   16.2154   -5.1862   -6.5101 C   0  0  0  0  0  0  0  0  0  0  0  0
   18.0151   -4.5273   -7.0199 C   0  0  2  0  0  0  0  0  0  0  0  0
   18.4456   -4.8243   -5.6385 O   0  0  0  0  0  0  0  0  0  0  0  0
   17.0696   -4.0244   -7.2432 S   0  0  0  0  0  0  0  0  0  0  0  0
   16.3765   -3.6688   -7.4063 C   0  0  0  0  0  0  0  0  0  0  0  0
   15.6225   -3.2860   -7.5712 C   0  0  2  0  0  0  0  0  0  0  0  0
   18.2853   -3.9059   -2.0211 C   0  0  0  0  0  0  0  0  0  0  0  0
   17.0430   -3.7203   -2.4296 C   0  0  0  0  0  0  0  0  0  0  0  0
   16.1553   -4.9527   -2.7149 C   0  0  0  0  0  0  0  0  0  0  0  0
  1  2  2  0
  2  3  1  0
  3  4  2  3
  4  5  1  0
  5  6  2  0
  6  7  1  0
  7  8  2  3
  8  9  1  0
  8 10  1  0
 10 11  2  3
 11 12  1  0
 12 13  2  0
 13 14  1  0
 14 15  2  0
 15 16  1  0
 16 17  2  0
 17 18  1  0
 18 19  1  1
 18 20  1  0
 20 21  3  0
 22 21  1  1
  4 23  1  0
 23 24  2  0
 24 25  1  0
 24  6  1  0
 22 12  1  0
 22 17  1  0
M  END
>  <docking_score>  (1) 
-6.4610000000000003

$$$$

     RDKit          3D

 25 27  0  0  0  0  0  0  0  0999 V2000
   20.4974    5.2604   -5.0519 C   0  0  0  0  0  0  0  0  0  0  0  0
   21.3809    4.2250   -4.7690 C   0  0  0  0  0  0  0  0  0  0  0  0
   21.3470    3.2402   -5.9389 C   0  0  0  0  0  0  0  0  0  0  0  0
   21.1233    1.9861   -5.6074 C   0  0  0  0  0  0  0  0  0  0  0  0
   21.0680    0.8896   -6.5268 C   0  0  0  0  0  0  0  0  0  0  0  0
   20.6565   -0.2392   -5.8232 C   0  0  0  0  0  0  0  0  0  0  0  0
   20.5471   -1.4393   -6.4430 C   0  0  0  0  0  0  0  0  0  0  0  0
   20.0495   -2.4604   -6.9392 C   0  0  0  0  0  0  0  0  0  0  0  0
   19.4007   -3.4236   -7.3935 F   0  0  0  0  0  0  0  0  0  0  0  0
   18.4761   -1.5758   -6.6428 C   0  0  0  0  0  0  0  0  0  0  0  0
   17.8815   -2.1295   -5.7085 C   0  0  0  0  0  0  0  0  0  0  0  0
   18.0582   -3.1489   -4.9109 C   0  0  0  0  0  0  0  0  0  0  0  0
   18.0042   -3.9590   -4.1383 C   0  0  0  0  0  0  0  0  0  0  0  0
   18.6768   -5.2676   -3.5118 C   0  0  0  0  0  0  0  0  0  0  0  0
   17.2745   -5.9423   -3.5347 C   0  0  0  0  0  0  0  0  0  0  0  0
   16.2012   -4.9306   -4.1562 C   0  0  0  0  0  0  0  0  0  0  0  0
   15.6917   -4.1989   -4.4416 C   0  0  0  0  0  0  0  0  0  0  0  0
   14.4525   -2.8224   -5.1508 C   0  0  2  0  0  0  0  0  0  0  0  0
   14.4857   -3.5465   -6.4378 O   0  0  0  0  0  0  0  0  0  0  0  0
   15.3566   -2.6214   -4.5686 S   0  0  0  0  0  0  0  0  0  0  0  0
   16.0128   -2.4851   -4.1393 C   0  0  0  0  0  0  0  0  0  0  0  0
   16.7293   -2.3458   -3.6817 C   0  0  2  0  0  0  0  0  0  0  0  0
   20.7111    1.4836   -4.3177 C   0  0  0  0  0  0  0  0  0  0  0  0
   20.4418    0.2003   -4.4765 C   0  0  0  0  0  0  0  0  0  0  0  0
   19.9427   -0.6170   -3.2635 C   0  0  0  0  0  0  0  0  0  0  0  0
  1  2  2  0
  2  3  1  0
  3  4  2  3
  4  5  1  0
  5  6  2  0
  6  7  1  0
  7  8  2  3
  8  9  1  0
  8 10  1  0
 10 11  2  3
 11 12  1  0
 12 13  2  0
 13 14  1  0
 14 15  2  0
 15 16  1  0
 16 17  2  0
 17 18  1  0
 18 19  1  6
 18 20  1  0
 20 21  3  0
 22 21  1  6
  4 23  1  0
 23 24  2  0
 24 25  1  0
 24  6  1  0
 22 12  1  0
 22 17  1  0
M  END
>  <docking_score>  (2) 
-5.4349999999999996

$$$$

     RDKit          3D

 25 27  0  0  0  0  0  0  0  0999 V2000
   13.9161    0.4091   -4.9541 C   0  0  0  0  0  0  0  0  0  0  0  0
   13.8845   -0.9763   -4.8432 C   0  0  0  0  0  0  0  0  0  0  0  0
   15.1724   -1.5302   -5.4548 C   0  0  0  0  0  0  0  0  0  0  0  0
   16.0278   -2.0372   -4.5922 C   0  0  0  0  0  0  0  0  0  0  0  0
   17.3037   -2.5932   -4.9289 C   0  0  0  0  0  0  0  0  0  0  0  0
   17.8396   -3.1642   -3.7777 C   0  0  0  0  0  0  0  0  0  0  0  0
   19.0660   -3.7405   -3.7974 C   0  0  0  0  0  0  0  0  0  0  0  0
   19.9741   -4.5682   -3.6340 C   0  0  0  0  0  0  0  0  0  0  0  0
   20.7707   -5.4986   -3.4001 F   0  0  0  0  0  0  0  0  0  0  0  0
   18.5954   -5.6573   -3.1252 C   0  0  0  0  0  0  0  0  0  0  0  0
   18.1750   -6.2555   -4.1245 C   0  0  0  0  0  0  0  0  0  0  0  0
   18.4295   -6.3095   -5.4046 C   0  0  0  0  0  0  0  0  0  0  0  0
   18.4518   -6.4813   -6.5120 C   0  0  0  0  0  0  0  0  0  0  0  0
   19.1832   -6.1907   -7.9041 C   0  0  0  0  0  0  0  0  0  0  0  0
   17.7857   -5.8981   -8.5236 C   0  0  0  0  0  0  0  0  0  0  0  0
   16.6562   -6.0551   -7.4005 C   0  0  0  0  0  0  0  0  0  0  0  0
   16.1208   -6.2813   -6.6666 C   0  0  0  0  0  0  0  0  0  0  0  0
   14.8174   -6.5886   -5.2038 C   0  0  2  0  0  0  0  0  0  0  0  0
   14.7250   -5.1211   -5.0635 O   0  0  0  0  0  0  0  0  0  0  0  0
   15.7740   -7.1066   -5.3192 S   0  0  0  0  0  0  0  0  0  0  0  0
   16.4690   -7.4826   -5.4146 C   0  0  0  0  0  0  0  0  0  0  0  0
   17.2267   -7.8786   -5.5204 C   0  0  2  0  0  0  0  0  0  0  0  0
   15.7994   -2.3086   -3.1922 C   0  0  0  0  0  0  0  0  0  0  0  0
   16.8579   -2.9656   -2.7533 C   0  0  0  0  0  0  0  0  0  0  0  0
   16.8969   -3.4253   -1.2783 C   0  0  0  0  0  0  0  0  0  0  0  0
  1  2  2  0
  2  3  1  0
  3  4  2  3
  4  5  1  0
  5  6  2  0
  6  7  1  0
  7  8  2  3
  8  9  1  0
  8 10  1  0
 10 11  2  3
 11 12  1  0
 12 13  2  0
 13 14  1  0
 14 15  2  0
 15 16  1  0
 16 17  2  0
 17 18  1  0
 18 19  1  1
 18 20  1  0
 20 21  3  0
 22 21  1  1
  4 23  1  0
 23 24  2  0
 24 25  1  0
 24  6  1  0
 22 12  1  0
 22 17  1  0
M  END
>  <docking_score>  (3) 
-5.3179999999999996

$$$$
