
     RDKit          3D

 25 25  0  0  0  0  0  0  0  0999 V2000
   18.1722   -8.2162   -7.3514 C   0  0  0  0  0  0  0  0  0  0  0  0
   18.2272   -6.9051   -7.8485 O   0  0  0  0  0  0  0  0  0  0  0  0
   16.9357   -6.4661   -8.0894 C   0  0  0  0  0  3  0  0  0  0  0  0
   16.8615   -5.1162   -7.7455 O   0  0  0  0  0  0  0  0  0  0  0  0
   16.6460   -4.9949   -6.3730 C   0  0  2  0  0  0  0  0  0  0  0  0
   15.3718   -5.7375   -6.0488 C   0  0  0  0  0  0  0  0  0  0  0  0
   16.5670   -3.5572   -5.9325 C   0  0  0  0  0  3  0  0  0  0  0  0
   16.6059   -2.5827   -7.0771 C   0  0  1  0  0  0  0  0  0  0  0  0
   15.5630   -1.5910   -7.0246 N   0  0  0  0  0  0  0  0  0  0  0  0
   14.6684   -1.8408   -5.9202 C   0  0  0  0  0  3  0  0  0  0  0  0
   14.2476   -0.5431   -5.2892 C   0  0  2  0  0  0  0  0  0  0  0  0
   14.1175   -0.2919   -3.9325 C   0  0  0  0  0  0  0  0  0  0  0  0
   12.9462   -0.5369   -4.7977 O   0  0  0  0  0  0  0  0  0  0  0  0
   17.9299   -1.9676   -7.0698 N   0  0  0  0  0  2  0  0  0  0  0  0
   18.3296   -1.8477   -5.7793 O   0  0  0  0  0  0  0  0  0  0  0  0
   19.7194   -2.0106   -5.6554 C   0  0  0  0  0  3  0  0  0  0  0  0
   20.0433   -1.6758   -4.2039 C   0  0  0  0  0  0  0  0  0  0  0  0
   19.8932   -2.8152   -3.3979 O   0  0  0  0  0  0  0  0  0  0  0  0
   20.2606   -3.8888   -4.0463 O   0  0  0  0  0  0  0  0  0  0  0  0
   19.3904   -4.9230   -3.8718 N   0  0  0  0  0  2  0  0  0  0  0  0
   19.1487   -5.1400   -2.5524 O   0  0  0  0  0  0  0  0  0  0  0  0
   18.0438   -5.8617   -2.4480 O   0  0  0  0  0  0  0  0  0  0  0  0
   16.9752   -4.9795   -2.5730 C   0  0  0  0  0  0  0  0  0  0  0  0
   17.1152   -3.8103   -1.6232 C   0  0  0  0  0  3  0  0  0  0  0  0
   16.5198   -2.6742   -2.1837 O   0  0  0  0  0  0  0  0  0  0  0  0
  1  2  1  0
  2  3  1  0
  3  4  1  0
  4  5  1  0
  5  6  1  6
  5  7  1  0
  8  7  1  1
  8  9  1  0
  9 10  1  0
 11 10  1  1
 11 12  1  0
 11 13  1  0
  8 14  1  0
 14 15  1  0
 15 16  1  0
 16 17  1  0
 17 18  1  0
 18 19  1  0
 19 20  1  0
 20 21  1  0
 21 22  1  0
 22 23  1  0
 23 24  1  0
 24 25  1  0
 13 12  1  0
M  CHG  2  14   1  20   1
M  RAD  7   3   2   7   2  10   2  14   3  16   2  20   3  24   2
M  END
>  <docking_score>  (1) 
-2.7559999999999998

$$$$

     RDKit          3D

 25 25  0  0  0  0  0  0  0  0999 V2000
   14.0858   -5.9041   -5.7607 C   0  0  0  0  0  0  0  0  0  0  0  0
   13.9520   -4.6141   -6.2966 O   0  0  0  0  0  0  0  0  0  0  0  0
   15.1613   -3.9511   -6.1680 C   0  0  0  0  0  3  0  0  0  0  0  0
   14.9826   -2.6312   -6.5826 O   0  0  0  0  0  0  0  0  0  0  0  0
   16.1773   -2.1408   -7.1086 C   0  0  2  0  0  0  0  0  0  0  0  0
   16.2084   -2.5045   -8.5738 C   0  0  0  0  0  0  0  0  0  0  0  0
   17.3832   -2.6808   -6.3865 C   0  0  0  0  0  3  0  0  0  0  0  0
   18.2375   -1.6067   -5.7721 C   0  0  1  0  0  0  0  0  0  0  0  0
   18.3305   -1.6952   -4.3377 N   0  0  0  0  0  0  0  0  0  0  0  0
   17.4880   -2.7511   -3.8301 C   0  0  0  0  0  3  0  0  0  0  0  0
   17.1137   -2.4747   -2.4008 C   0  0  2  0  0  0  0  0  0  0  0  0
   16.1729   -1.5581   -1.9591 C   0  0  0  0  0  0  0  0  0  0  0  0
   17.6222   -1.2839   -1.8922 O   0  0  0  0  0  0  0  0  0  0  0  0
   19.5526   -1.6953   -6.3998 N   0  0  0  0  0  2  0  0  0  0  0  0
   19.6837   -2.9388   -6.9251 O   0  0  0  0  0  0  0  0  0  0  0  0
   20.9953   -3.4211   -6.7807 C   0  0  0  0  0  3  0  0  0  0  0  0
   20.8535   -4.8334   -6.2245 C   0  0  0  0  0  0  0  0  0  0  0  0
   21.2518   -4.8673   -4.8790 O   0  0  0  0  0  0  0  0  0  0  0  0
   20.2235   -4.6976   -4.0904 O   0  0  0  0  0  0  0  0  0  0  0  0
   20.0697   -5.7266   -3.2104 N   0  0  0  0  0  2  0  0  0  0  0  0
   18.8616   -6.3279   -3.3688 O   0  0  0  0  0  0  0  0  0  0  0  0
   19.0617   -7.6304   -3.4955 O   0  0  0  0  0  0  0  0  0  0  0  0
   18.9504   -7.9234   -4.8509 C   0  0  0  0  0  0  0  0  0  0  0  0
   17.6144   -7.4746   -5.4012 C   0  0  0  0  0  3  0  0  0  0  0  0
   16.7243   -8.5549   -5.4161 O   0  0  0  0  0  0  0  0  0  0  0  0
  1  2  1  0
  2  3  1  0
  3  4  1  0
  4  5  1  0
  5  6  1  6
  5  7  1  0
  8  7  1  6
  8  9  1  0
  9 10  1  0
 11 10  1  6
 11 12  1  0
 11 13  1  0
  8 14  1  0
 14 15  1  0
 15 16  1  0
 16 17  1  0
 17 18  1  0
 18 19  1  0
 19 20  1  0
 20 21  1  0
 21 22  1  0
 22 23  1  0
 23 24  1  0
 24 25  1  0
 13 12  1  0
M  CHG  2  14   1  20   1
M  RAD  7   3   2   7   2  10   2  14   3  16   2  20   3  24   2
M  END
>  <docking_score>  (2) 
-2.7240000000000002

$$$$

     RDKit          3D

 25 25  0  0  0  0  0  0  0  0999 V2000
   16.8341   -9.9750   -5.4469 C   0  0  0  0  0  0  0  0  0  0  0  0
   17.5290   -8.7685   -5.2718 O   0  0  0  0  0  0  0  0  0  0  0  0
   18.0744   -8.3887   -6.4871 C   0  0  0  0  0  3  0  0  0  0  0  0
   19.4506   -8.2337   -6.3193 O   0  0  0  0  0  0  0  0  0  0  0  0
   19.7937   -6.8925   -6.4875 C   0  0  2  0  0  0  0  0  0  0  0  0
   20.3524   -6.7409   -7.8820 C   0  0  0  0  0  0  0  0  0  0  0  0
   20.7786   -6.4210   -5.4506 C   0  0  0  0  0  3  0  0  0  0  0  0
   20.2080   -5.3917   -4.5147 C   0  0  1  0  0  0  0  0  0  0  0  0
   19.5699   -4.2910   -5.1892 N   0  0  0  0  0  0  0  0  0  0  0  0
   20.4323   -3.1344   -5.2198 C   0  0  0  0  0  3  0  0  0  0  0  0
   19.8842   -2.1031   -6.1660 C   0  0  2  0  0  0  0  0  0  0  0  0
   19.3394   -0.8765   -5.8205 C   0  0  0  0  0  0  0  0  0  0  0  0
   18.4954   -2.0287   -6.1954 O   0  0  0  0  0  0  0  0  0  0  0  0
   19.2790   -6.0875   -3.6292 N   0  0  0  0  0  2  0  0  0  0  0  0
   18.0330   -5.6082   -3.8682 O   0  0  0  0  0  0  0  0  0  0  0  0
   17.2538   -5.5991   -2.6993 C   0  0  0  0  0  3  0  0  0  0  0  0
   16.4751   -4.2890   -2.7363 C   0  0  0  0  0  0  0  0  0  0  0  0
   17.2850   -3.2306   -2.2955 O   0  0  0  0  0  0  0  0  0  0  0  0
   16.8543   -2.0925   -2.7722 O   0  0  0  0  0  0  0  0  0  0  0  0
   16.1492   -1.3781   -1.8505 N   0  0  0  0  0  2  0  0  0  0  0  0
   15.0855   -0.7570   -2.4241 O   0  0  0  0  0  0  0  0  0  0  0  0
   14.9611   -1.2092   -3.6621 O   0  0  0  0  0  0  0  0  0  0  0  0
   13.8626   -0.5608   -4.2175 C   0  0  0  0  0  0  0  0  0  0  0  0
   14.1200   -0.1833   -5.6598 C   0  0  0  0  0  3  0  0  0  0  0  0
   15.3036   -0.7868   -6.1006 O   0  0  0  0  0  0  0  0  0  0  0  0
  1  2  1  0
  2  3  1  0
  3  4  1  0
  4  5  1  0
  5  6  1  6
  5  7  1  0
  8  7  1  6
  8  9  1  0
  9 10  1  0
 11 10  1  1
 11 12  1  0
 11 13  1  0
  8 14  1  0
 14 15  1  0
 15 16  1  0
 16 17  1  0
 17 18  1  0
 18 19  1  0
 19 20  1  0
 20 21  1  0
 21 22  1  0
 22 23  1  0
 23 24  1  0
 24 25  1  0
 13 12  1  0
M  CHG  2  14   1  20   1
M  RAD  7   3   2   7   2  10   2  14   3  16   2  20   3  24   2
M  END
>  <docking_score>  (3) 
-2.6110000000000002

$$$$
