
     RDKit          3D

 19 18  0  0  0  0  0  0  0  0999 V2000
    6.4911   11.2217   11.8905 N   0  0  0  0  0  0  0  0  0  0  0  0
    5.1373   11.3387   12.3757 C   0  0  0  0  0  0  0  0  0  0  0  0
    4.4009   10.0305   12.0581 C   0  0  0  0  0  0  0  0  0  0  0  0
    4.8318    9.6460   10.6537 C   0  0  0  0  0  0  0  0  0  0  0  0
    4.0936    8.4483   10.1477 C   0  0  0  0  0  0  0  0  0  0  0  0
    3.9921    8.5620    8.6419 C   0  0  0  0  0  0  0  0  0  0  0  0
    4.1640   10.0276    8.2960 C   0  0  0  0  0  0  0  0  0  0  0  0
    4.5755   10.1999    6.8395 C   0  0  0  0  0  0  0  0  0  0  0  0
    4.6087    8.7896    6.2467 C   0  0  0  0  0  0  0  0  0  0  0  0
    5.8562    8.6390    5.4559 C   0  0  0  0  0  0  0  0  0  0  0  0
    6.0366    9.6446    4.3784 C   0  0  0  0  0  0  0  0  0  0  0  0
    5.2876    9.3043    3.1574 C   0  0  0  0  0  0  0  0  0  0  0  0
    5.3105   10.2519    2.0334 C   0  0  0  0  0  0  0  0  0  0  0  0
    6.6042   10.9337    1.7444 C   0  0  0  0  0  0  0  0  0  0  0  0
    6.3780   12.3578    1.4476 C   0  0  0  0  0  0  0  0  0  0  0  0
    7.0459   13.2517    2.0800 N   0  0  0  0  0  0  0  0  0  0  0  0
    7.9898   12.8937    3.0511 C   0  0  0  0  0  0  0  0  0  0  0  0
    8.6563   13.7309    3.7838 C   0  0  0  0  0  0  0  0  0  0  0  0
    9.1665   14.5136    4.6074 O   0  0  0  0  0  0  0  0  0  0  0  0
  1  2  1  0
  2  3  1  0
  3  4  1  0
  4  5  1  0
  5  6  1  0
  6  7  1  0
  7  8  1  0
  8  9  1  0
  9 10  1  0
 10 11  1  0
 11 12  1  0
 12 13  1  0
 13 14  1  0
 14 15  1  0
 15 16  2  3
 16 17  1  0
 17 18  2  0
 18 19  2  0
M  END
>  <docking_score>  (1) 
-3.2370000000000001

$$$$

     RDKit          3D

 19 18  0  0  0  0  0  0  0  0999 V2000
   20.1483   -0.4488   -1.2420 N   0  0  0  0  0  0  0  0  0  0  0  0
   19.7959   -1.7746   -1.6890 C   0  0  0  0  0  0  0  0  0  0  0  0
   18.7268   -1.6423   -2.7817 C   0  0  0  0  0  0  0  0  0  0  0  0
   17.3978   -1.8877   -2.0892 C   0  0  0  0  0  0  0  0  0  0  0  0
   16.4662   -2.6979   -2.9323 C   0  0  0  0  0  0  0  0  0  0  0  0
   16.8363   -2.4783   -4.3833 C   0  0  0  0  0  0  0  0  0  0  0  0
   15.6663   -1.7700   -5.0364 C   0  0  0  0  0  0  0  0  0  0  0  0
   15.0257   -2.6459   -6.1054 C   0  0  0  0  0  0  0  0  0  0  0  0
   14.0435   -3.5557   -5.3644 C   0  0  0  0  0  0  0  0  0  0  0  0
   13.8451   -4.7891   -6.1666 C   0  0  0  0  0  0  0  0  0  0  0  0
   14.2631   -6.0448   -5.4932 C   0  0  0  0  0  0  0  0  0  0  0  0
   15.6703   -6.0124   -5.0613 C   0  0  0  0  0  0  0  0  0  0  0  0
   16.7205   -6.0451   -6.0898 C   0  0  0  0  0  0  0  0  0  0  0  0
   18.0235   -6.6633   -5.7125 C   0  0  0  0  0  0  0  0  0  0  0  0
   19.1360   -5.9509   -6.3622 C   0  0  0  0  0  0  0  0  0  0  0  0
   19.8622   -5.1473   -5.6754 N   0  0  0  0  0  0  0  0  0  0  0  0
   19.6132   -4.9359   -4.3134 C   0  0  0  0  0  0  0  0  0  0  0  0
   20.5007   -5.0305   -3.3722 C   0  0  0  0  0  0  0  0  0  0  0  0
   21.3760   -4.9461   -2.4903 O   0  0  0  0  0  0  0  0  0  0  0  0
  1  2  1  0
  2  3  1  0
  3  4  1  0
  4  5  1  0
  5  6  1  0
  6  7  1  0
  7  8  1  0
  8  9  1  0
  9 10  1  0
 10 11  1  0
 11 12  1  0
 12 13  1  0
 13 14  1  0
 14 15  1  0
 15 16  2  3
 16 17  1  0
 17 18  2  0
 18 19  2  0
M  END
>  <docking_score>  (2) 
-3.1930000000000001

$$$$

     RDKit          3D

 19 18  0  0  0  0  0  0  0  0999 V2000
   19.7257   -4.7012   -2.6811 N   0  0  0  0  0  0  0  0  0  0  0  0
   19.0913   -3.8525   -1.7018 C   0  0  0  0  0  0  0  0  0  0  0  0
   17.6749   -3.5290   -2.1953 C   0  0  0  0  0  0  0  0  0  0  0  0
   17.8082   -3.2640   -3.6846 C   0  0  0  0  0  0  0  0  0  0  0  0
   17.9593   -1.8072   -3.9848 C   0  0  0  0  0  0  0  0  0  0  0  0
   17.9213   -1.6321   -5.4876 C   0  0  0  0  0  0  0  0  0  0  0  0
   17.0049   -2.7076   -6.0358 C   0  0  0  0  0  0  0  0  0  0  0  0
   15.7638   -2.0950   -6.6720 C   0  0  0  0  0  0  0  0  0  0  0  0
   14.7257   -1.9997   -5.5519 C   0  0  0  0  0  0  0  0  0  0  0  0
   14.4425   -3.3689   -5.0526 C   0  0  0  0  0  0  0  0  0  0  0  0
   13.9031   -4.3048   -6.0714 C   0  0  0  0  0  0  0  0  0  0  0  0
   14.0133   -5.7137   -5.6583 C   0  0  0  0  0  0  0  0  0  0  0  0
   15.2480   -6.1551   -4.9931 C   0  0  0  0  0  0  0  0  0  0  0  0
   16.3972   -6.5252   -5.8675 C   0  0  0  0  0  0  0  0  0  0  0  0
   17.6351   -6.6162   -5.0759 C   0  0  0  0  0  0  0  0  0  0  0  0
   18.7585   -6.7832   -5.6717 N   0  0  0  0  0  0  0  0  0  0  0  0
   18.8267   -6.8807   -7.0674 C   0  0  0  0  0  0  0  0  0  0  0  0
   18.8329   -7.9925   -7.7353 C   0  0  0  0  0  0  0  0  0  0  0  0
   18.6623   -9.0395   -8.3878 O   0  0  0  0  0  0  0  0  0  0  0  0
  1  2  1  0
  2  3  1  0
  3  4  1  0
  4  5  1  0
  5  6  1  0
  6  7  1  0
  7  8  1  0
  8  9  1  0
  9 10  1  0
 10 11  1  0
 11 12  1  0
 12 13  1  0
 13 14  1  0
 14 15  1  0
 15 16  2  3
 16 17  1  0
 17 18  2  0
 18 19  2  0
M  END
>  <docking_score>  (3) 
-3.1269999999999998

$$$$
