
     RDKit          3D

 24 25  0  0  0  0  0  0  0  0999 V2000
   15.0006   -7.1527   -4.7369 C   0  0  0  0  0  0  0  0  0  0  0  0
   16.3619   -6.5273   -4.5393 C   0  0  1  0  0  0  0  0  0  0  0  0
   17.4357   -7.3056   -5.2685 C   0  0  0  0  0  0  0  0  0  0  0  0
   17.1041   -7.2495   -6.7425 C   0  0  2  0  0  0  0  0  0  0  0  0
   18.0176   -7.9880   -7.5059 O   0  0  0  0  0  0  0  0  0  0  0  0
   17.0889   -5.8297   -7.2429 C   0  0  2  0  0  0  0  0  0  0  0  0
   18.3361   -5.2267   -7.1349 O   0  0  0  0  0  0  0  0  0  0  0  0
   16.0850   -4.9984   -6.4939 C   0  0  1  0  0  0  0  0  0  0  0  0
   14.8184   -5.5105   -6.7263 O   0  0  0  0  0  0  0  0  0  0  0  0
   16.3795   -5.0996   -5.0242 C   0  0  1  0  0  0  0  0  0  0  0  0
   15.4114   -4.3638   -4.2222 N   0  0  0  0  0  0  0  0  0  0  0  0
   16.1375   -3.3469   -3.5178 C   0  0  1  0  0  0  0  0  0  0  0  0
   17.4527   -3.8433   -2.9457 C   0  0  0  0  0  0  0  0  0  0  0  0
   18.3045   -2.5895   -2.7862 C   0  0  1  0  0  0  0  0  0  0  0  0
   17.4939   -1.5818   -2.2945 O   0  0  0  0  0  0  0  0  0  0  0  0
   19.4128   -2.8560   -1.8133 C   0  0  0  0  0  0  0  0  0  0  0  0
   19.8952   -1.6046   -1.3961 O   0  0  0  0  0  0  0  0  0  0  0  0
   18.7710   -2.2022   -4.1579 C   0  0  1  0  0  0  0  0  0  0  0  0
   19.5144   -3.2274   -4.7615 O   0  0  0  0  0  0  0  0  0  0  0  0
   17.5818   -1.9492   -5.0344 C   0  0  2  0  0  0  0  0  0  0  0  0
   17.6811   -0.6191   -5.4745 O   0  0  0  0  0  0  0  0  0  0  0  0
   16.2981   -2.0646   -4.2684 C   0  0  1  0  0  0  0  0  0  0  0  0
   15.1970   -1.8091   -5.0594 O   0  0  0  0  0  0  0  0  0  0  0  0
   14.3769   -1.0530   -4.3463 O   0  0  0  0  0  0  0  0  0  0  0  0
  2  1  1  6
  2  3  1  0
  3  4  1  0
  4  5  1  6
  4  6  1  0
  6  7  1  1
  6  8  1  0
  8  9  1  1
  8 10  1  0
 10 11  1  1
 12 11  1  6
 12 13  1  0
 13 14  1  0
 14 15  1  1
 14 16  1  0
 16 17  1  0
 14 18  1  0
 18 19  1  6
 18 20  1  0
 20 21  1  1
 20 22  1  0
 22 23  1  6
 23 24  1  0
 10  2  1  0
 22 12  1  0
M  END
>  <docking_score>  (1) 
-4.8079999999999998

$$$$

     RDKit          3D

 24 25  0  0  0  0  0  0  0  0999 V2000
   16.4466   -1.7066   -2.0593 C   0  0  0  0  0  0  0  0  0  0  0  0
   17.4344   -1.9977   -3.1652 C   0  0  1  0  0  0  0  0  0  0  0  0
   18.8436   -1.6281   -2.7552 C   0  0  0  0  0  0  0  0  0  0  0  0
   19.2032   -2.4909   -1.5670 C   0  0  2  0  0  0  0  0  0  0  0  0
   20.4802   -2.1884   -1.0765 O   0  0  0  0  0  0  0  0  0  0  0  0
   19.1531   -3.9533   -1.9215 C   0  0  2  0  0  0  0  0  0  0  0  0
   20.0852   -4.2841   -2.8975 O   0  0  0  0  0  0  0  0  0  0  0  0
   17.7864   -4.3502   -2.4058 C   0  0  1  0  0  0  0  0  0  0  0  0
   16.8763   -4.1638   -1.3775 O   0  0  0  0  0  0  0  0  0  0  0  0
   17.4045   -3.4553   -3.5505 C   0  0  1  0  0  0  0  0  0  0  0  0
   16.0631   -3.7402   -4.0413 N   0  0  0  0  0  0  0  0  0  0  0  0
   16.1174   -3.6715   -5.4731 C   0  0  1  0  0  0  0  0  0  0  0  0
   17.2893   -4.4359   -6.0612 C   0  0  0  0  0  0  0  0  0  0  0  0
   16.8702   -4.7475   -7.4931 C   0  0  1  0  0  0  0  0  0  0  0  0
   16.2462   -3.6259   -8.0095 O   0  0  0  0  0  0  0  0  0  0  0  0
   18.0837   -5.0641   -8.3136 C   0  0  0  0  0  0  0  0  0  0  0  0
   19.1984   -4.6602   -7.5605 O   0  0  0  0  0  0  0  0  0  0  0  0
   15.8692   -5.8619   -7.4213 C   0  0  1  0  0  0  0  0  0  0  0  0
   16.4068   -7.0031   -6.8075 O   0  0  0  0  0  0  0  0  0  0  0  0
   14.7001   -5.4272   -6.5902 C   0  0  2  0  0  0  0  0  0  0  0  0
   13.5665   -5.5077   -7.4157 O   0  0  0  0  0  0  0  0  0  0  0  0
   14.8309   -3.9968   -6.1605 C   0  0  1  0  0  0  0  0  0  0  0  0
   13.7481   -3.5777   -5.4154 O   0  0  0  0  0  0  0  0  0  0  0  0
   13.9453   -2.2992   -5.1339 O   0  0  0  0  0  0  0  0  0  0  0  0
  2  1  1  1
  2  3  1  0
  3  4  1  0
  4  5  1  6
  4  6  1  0
  6  7  1  6
  6  8  1  0
  8  9  1  1
  8 10  1  0
 10 11  1  1
 12 11  1  1
 12 13  1  0
 13 14  1  0
 14 15  1  6
 14 16  1  0
 16 17  1  0
 14 18  1  0
 18 19  1  1
 18 20  1  0
 20 21  1  6
 20 22  1  0
 22 23  1  1
 23 24  1  0
 10  2  1  0
 22 12  1  0
M  END
>  <docking_score>  (2) 
-4.6829999999999998

$$$$

     RDKit          3D

 24 25  0  0  0  0  0  0  0  0999 V2000
   16.6110   -3.8920   -1.8040 C   0  0  0  0  0  0  0  0  0  0  0  0
   17.4935   -3.1073   -2.7467 C   0  0  1  0  0  0  0  0  0  0  0  0
   18.7021   -2.5456   -2.0293 C   0  0  0  0  0  0  0  0  0  0  0  0
   19.4991   -3.7211   -1.5109 C   0  0  2  0  0  0  0  0  0  0  0  0
   20.6208   -3.3036   -0.7827 O   0  0  0  0  0  0  0  0  0  0  0  0
   19.9549   -4.6089   -2.6382 C   0  0  2  0  0  0  0  0  0  0  0  0
   20.8169   -3.9481   -3.5048 O   0  0  0  0  0  0  0  0  0  0  0  0
   18.7867   -5.1323   -3.4263 C   0  0  1  0  0  0  0  0  0  0  0  0
   18.0051   -5.9207   -2.5967 O   0  0  0  0  0  0  0  0  0  0  0  0
   17.9625   -3.9665   -3.8938 C   0  0  1  0  0  0  0  0  0  0  0  0
   16.7749   -4.3948   -4.6203 N   0  0  0  0  0  0  0  0  0  0  0  0
   16.6212   -3.5041   -5.7342 C   0  0  1  0  0  0  0  0  0  0  0  0
   17.8807   -3.3755   -6.5711 C   0  0  0  0  0  0  0  0  0  0  0  0
   17.3916   -2.9214   -7.9413 C   0  0  1  0  0  0  0  0  0  0  0  0
   16.4021   -1.9736   -7.7494 O   0  0  0  0  0  0  0  0  0  0  0  0
   18.5279   -2.3077   -8.7018 C   0  0  0  0  0  0  0  0  0  0  0  0
   19.4468   -1.8389   -7.7486 O   0  0  0  0  0  0  0  0  0  0  0  0
   16.7836   -4.1203   -8.6062 C   0  0  1  0  0  0  0  0  0  0  0  0
   17.7097   -5.1660   -8.7371 O   0  0  0  0  0  0  0  0  0  0  0  0
   15.6558   -4.6367   -7.7650 C   0  0  2  0  0  0  0  0  0  0  0  0
   14.5003   -4.5808   -8.5617 O   0  0  0  0  0  0  0  0  0  0  0  0
   15.4113   -3.7607   -6.5731 C   0  0  1  0  0  0  0  0  0  0  0  0
   14.3586   -4.2124   -5.8043 O   0  0  0  0  0  0  0  0  0  0  0  0
   13.8523   -3.1572   -5.1855 O   0  0  0  0  0  0  0  0  0  0  0  0
  2  1  1  1
  2  3  1  0
  3  4  1  0
  4  5  1  6
  4  6  1  0
  6  7  1  6
  6  8  1  0
  8  9  1  1
  8 10  1  0
 10 11  1  1
 12 11  1  1
 12 13  1  0
 13 14  1  0
 14 15  1  1
 14 16  1  0
 16 17  1  0
 14 18  1  0
 18 19  1  1
 18 20  1  0
 20 21  1  6
 20 22  1  0
 22 23  1  1
 23 24  1  0
 10  2  1  0
 22 12  1  0
M  END
>  <docking_score>  (3) 
-4.5869999999999997

$$$$
