
     RDKit          3D

 15 15  0  0  0  0  0  0  0  0999 V2000
   16.0022   -5.8162   -7.2997 C   0  0  0  0  0  0  0  0  0  0  0  0
   16.5564   -6.3185   -5.9769 C   0  0  0  0  0  0  0  0  0  0  0  0
   15.4522   -6.4026   -4.9059 C   0  0  2  0  0  0  0  0  0  0  0  0
   14.1593   -5.9470   -5.6037 C   0  0  0  0  0  0  0  0  0  0  0  0
   15.7758   -5.3868   -3.8564 C   0  0  0  0  0  3  0  0  0  0  0  0
   15.5204   -4.0337   -4.2258 N   0  0  0  0  0  0  0  0  0  0  0  0
   16.5586   -3.0513   -4.3093 C   0  0  0  0  0  0  0  0  0  0  0  0
   17.7301   -3.3363   -4.0565 O   0  0  0  0  0  0  0  0  0  0  0  0
   16.2013   -1.6544   -4.7174 C   0  0  1  0  0  0  0  0  0  0  0  0
   17.2205   -1.2164   -5.7847 C   0  0  0  0  0  0  0  0  0  0  0  0
   16.7409   -1.9386   -7.0492 C   0  0  0  0  0  0  0  0  0  0  0  0
   15.2502   -1.9259   -6.9417 C   0  0  0  0  0  3  0  0  0  0  0  0
   14.8957   -1.6937   -5.4840 C   0  0  2  0  0  0  0  0  0  0  0  0
   14.1696   -0.3858   -5.3777 C   0  0  0  0  0  0  0  0  0  0  0  0
   13.7661   -0.0370   -4.2990 O   0  0  0  0  0  0  0  0  0  0  0  0
  1  2  1  0
  2  3  1  0
  3  4  1  6
  3  5  1  0
  5  6  1  0
  6  7  1  0
  7  8  2  0
  9  7  1  6
  9 10  1  0
 10 11  1  0
 11 12  1  0
 12 13  1  0
 13 14  1  6
 14 15  2  0
 13  9  1  0
M  RAD  2   5   2  12   2
M  END
>  <docking_score>  (1) 
-4.0389999999999997

$$$$

     RDKit          3D

 15 15  0  0  0  0  0  0  0  0999 V2000
   14.2052   -4.0568   -5.5917 C   0  0  0  0  0  0  0  0  0  0  0  0
   15.5476   -3.6835   -6.1982 C   0  0  0  0  0  0  0  0  0  0  0  0
   15.5200   -2.2563   -6.7775 C   0  0  2  0  0  0  0  0  0  0  0  0
   16.5840   -2.2367   -7.8881 C   0  0  0  0  0  0  0  0  0  0  0  0
   15.9841   -1.3314   -5.6970 C   0  0  0  0  0  3  0  0  0  0  0  0
   16.8623   -1.9154   -4.7377 N   0  0  0  0  0  0  0  0  0  0  0  0
   16.5130   -2.0442   -3.3551 C   0  0  0  0  0  0  0  0  0  0  0  0
   15.4277   -1.6455   -2.9302 O   0  0  0  0  0  0  0  0  0  0  0  0
   17.4932   -2.6820   -2.4181 C   0  0  1  0  0  0  0  0  0  0  0  0
   16.7361   -3.7732   -1.6398 C   0  0  0  0  0  0  0  0  0  0  0  0
   16.6294   -4.9200   -2.6518 C   0  0  0  0  0  0  0  0  0  0  0  0
   17.9132   -4.8627   -3.4151 C   0  0  0  0  0  3  0  0  0  0  0  0
   18.4959   -3.4729   -3.2321 C   0  0  2  0  0  0  0  0  0  0  0  0
   19.8002   -3.6005   -2.5029 C   0  0  0  0  0  0  0  0  0  0  0  0
   20.1300   -4.6846   -2.0978 O   0  0  0  0  0  0  0  0  0  0  0  0
  1  2  1  0
  2  3  1  0
  3  4  1  6
  3  5  1  0
  5  6  1  0
  6  7  1  0
  7  8  2  0
  9  7  1  6
  9 10  1  0
 10 11  1  0
 11 12  1  0
 12 13  1  0
 13 14  1  1
 14 15  2  0
 13  9  1  0
M  RAD  2   5   2  12   2
M  END
>  <docking_score>  (2) 
-3.891

$$$$

     RDKit          3D

 15 15  0  0  0  0  0  0  0  0999 V2000
   18.6694   -6.3611   -3.4438 C   0  0  0  0  0  0  0  0  0  0  0  0
   17.2270   -5.9710   -3.7203 C   0  0  0  0  0  0  0  0  0  0  0  0
   16.6603   -6.7482   -4.9236 C   0  0  2  0  0  0  0  0  0  0  0  0
   17.5533   -6.3746   -6.1191 C   0  0  0  0  0  0  0  0  0  0  0  0
   15.2943   -6.2034   -5.1983 C   0  0  0  0  0  3  0  0  0  0  0  0
   15.0554   -4.8903   -4.6971 N   0  0  0  0  0  0  0  0  0  0  0  0
   14.8151   -3.7716   -5.5578 C   0  0  0  0  0  0  0  0  0  0  0  0
   14.8103   -3.8975   -6.7833 O   0  0  0  0  0  0  0  0  0  0  0  0
   14.5612   -2.4283   -4.9441 C   0  0  1  0  0  0  0  0  0  0  0  0
   15.5812   -2.2471   -3.8055 C   0  0  0  0  0  0  0  0  0  0  0  0
   16.8794   -1.9032   -4.5451 C   0  0  0  0  0  0  0  0  0  0  0  0
   16.4363   -1.0778   -5.7097 C   0  0  0  0  0  3  0  0  0  0  0  0
   14.9621   -1.3588   -5.9387 C   0  0  2  0  0  0  0  0  0  0  0  0
   14.1978   -0.0904   -5.7024 C   0  0  0  0  0  0  0  0  0  0  0  0
   13.9399    0.2243   -4.5699 O   0  0  0  0  0  0  0  0  0  0  0  0
  1  2  1  0
  2  3  1  0
  3  4  1  6
  3  5  1  0
  5  6  1  0
  6  7  1  0
  7  8  2  0
  9  7  1  6
  9 10  1  0
 10 11  1  0
 11 12  1  0
 12 13  1  0
 13 14  1  1
 14 15  2  0
 13  9  1  0
M  RAD  2   5   2  12   2
M  END
>  <docking_score>  (3) 
-3.7189999999999999

$$$$
