
     RDKit          3D

 34 35  0  0  0  0  0  0  0  0999 V2000
   21.0878    0.5263   -1.7091 C   0  0  0  0  0  0  0  0  0  0  0  0
   20.3674   -0.3593   -2.7207 C   0  0  0  0  0  0  0  0  0  0  0  0
   21.3817   -1.1828   -3.4746 C   0  0  0  0  0  0  0  0  0  0  0  0
   19.4320   -1.2757   -1.9309 C   0  0  0  0  0  0  0  0  0  0  0  0
   19.4184   -2.6301   -2.6045 C   0  0  0  0  0  0  0  0  0  0  0  0
   19.2991   -3.7549   -1.6145 C   0  0  0  0  0  0  0  0  0  0  0  0
   17.9231   -4.3549   -1.7330 C   0  0  1  0  0  0  0  0  0  0  0  0
   16.8258   -3.3315   -1.6354 C   0  0  0  0  0  0  0  0  0  0  0  0
   17.7802   -5.2432   -2.9385 C   0  0  0  0  0  3  0  0  0  0  0  0
   17.5356   -4.5386   -4.2027 C   0  0  2  0  0  0  0  0  0  0  0  0
   16.2716   -3.8512   -4.3899 C   0  0  0  0  0  0  0  0  0  0  0  0
   15.3661   -4.3116   -5.4558 C   0  0  2  0  0  0  0  0  0  0  0  0
   15.8081   -5.5596   -6.1734 C   0  0  0  0  0  0  0  0  0  0  0  0
   14.7926   -3.2741   -6.3376 C   0  0  0  0  0  0  0  0  0  0  0  0
   15.4744   -1.9620   -6.3581 C   0  0  1  0  0  0  0  0  0  0  0  0
   14.4093   -0.8913   -6.6347 C   0  0  0  0  0  0  0  0  0  0  0  0
   16.1583   -1.5748   -5.0882 C   0  0  0  0  0  0  0  0  0  0  0  0
   17.4830   -0.8959   -5.4579 C   0  0  0  0  0  0  0  0  0  0  0  0
   18.0110   -1.6222   -6.6841 C   0  0  2  0  0  0  0  0  0  0  0  0
   17.7578   -2.9791   -6.5170 O   0  0  0  0  0  0  0  0  0  0  0  0
   19.4707   -1.4019   -6.9095 C   0  0  0  0  0  0  0  0  0  0  0  0
   20.2555   -2.5451   -6.3090 C   0  0  0  0  0  0  0  0  0  0  0  0
   20.9802   -3.2398   -7.4427 C   0  0  2  0  0  0  0  0  0  0  0  0
   21.3804   -2.2290   -8.3318 O   0  0  0  0  0  0  0  0  0  0  0  0
   20.0209   -4.1322   -8.2315 C   0  0  0  0  0  3  0  0  0  0  0  0
   19.2101   -5.0099   -7.3006 C   0  0  0  0  0  0  0  0  0  0  0  0
   18.3594   -4.2118   -6.3822 C   0  0  0  0  0  0  0  0  0  0  0  0
   18.2711   -4.9441   -5.3306 N   0  0  0  0  0  4  0  0  0  0  0  0
   18.9325   -6.1710   -5.3329 N   0  0  0  0  0  0  0  0  0  0  0  0
   18.2398   -7.4187   -5.6471 C   0  0  0  0  0  0  0  0  0  0  0  0
   18.5819   -7.8913   -6.9192 O   0  0  0  0  0  0  0  0  0  0  0  0
   18.1005   -9.1319   -7.3042 C   0  0  0  0  0  0  0  0  0  0  0  0
   17.4131   -9.8440   -6.4237 C   0  0  0  0  0  0  0  0  0  0  0  0
   16.7946  -11.4494   -6.9338 S   0  0  0  0  0  1  0  0  0  0  0  0
  1  2  1  0
  2  3  1  0
  2  4  1  0
  4  5  1  0
  5  6  1  0
  6  7  1  0
  7  8  1  6
  7  9  1  0
 10  9  1  1
 10 11  1  0
 11 12  1  0
 12 13  1  6
 12 14  1  0
 14 15  1  0
 15 16  1  1
 15 17  1  0
 17 18  1  0
 19 18  1  1
 19 20  1  0
 19 21  1  0
 21 22  1  0
 22 23  1  0
 23 24  1  6
 23 25  1  0
 25 26  1  0
 26 27  1  0
 27 28  2  3
 28 29  1  0
 29 30  1  0
 30 31  1  0
 31 32  1  0
 32 33  2  3
 33 34  1  0
 28 10  1  0
 27 20  1  0
M  CHG  2  28   1  34   1
M  RAD  3   9   2  25   2  34   3
M  END
>  <docking_score>  (1) 
-4.2400000000000002

$$$$

     RDKit          3D

 34 35  0  0  0  0  0  0  0  0999 V2000
   21.2715   -9.0097   -6.6832 C   0  0  0  0  0  0  0  0  0  0  0  0
   21.2377   -7.5470   -7.1150 C   0  0  0  0  0  0  0  0  0  0  0  0
   21.3221   -7.4686   -8.6190 C   0  0  0  0  0  0  0  0  0  0  0  0
   19.9070   -6.9666   -6.6345 C   0  0  0  0  0  0  0  0  0  0  0  0
   19.9927   -6.7653   -5.1377 C   0  0  0  0  0  0  0  0  0  0  0  0
   18.6546   -6.9097   -4.4683 C   0  0  0  0  0  0  0  0  0  0  0  0
   18.7950   -6.5104   -3.0232 C   0  0  1  0  0  0  0  0  0  0  0  0
   20.1943   -6.0952   -2.6621 C   0  0  0  0  0  0  0  0  0  0  0  0
   17.7640   -5.5010   -2.5982 C   0  0  0  0  0  3  0  0  0  0  0  0
   17.9430   -4.1571   -3.1606 C   0  0  2  0  0  0  0  0  0  0  0  0
   18.9958   -3.3097   -2.6326 C   0  0  0  0  0  0  0  0  0  0  0  0
   18.6238   -2.0531   -1.9613 C   0  0  2  0  0  0  0  0  0  0  0  0
   17.1440   -1.8402   -1.7808 C   0  0  0  0  0  0  0  0  0  0  0  0
   19.3688   -0.8401   -2.3569 C   0  0  0  0  0  0  0  0  0  0  0  0
   20.0973   -0.8922   -3.6428 C   0  0  1  0  0  0  0  0  0  0  0  0
   21.3305    0.0133   -3.5129 C   0  0  0  0  0  0  0  0  0  0  0  0
   20.5921   -2.2426   -4.0452 C   0  0  0  0  0  0  0  0  0  0  0  0
   20.3845   -2.3855   -5.5581 C   0  0  0  0  0  0  0  0  0  0  0  0
   19.0829   -1.6716   -5.8832 C   0  0  2  0  0  0  0  0  0  0  0  0
   18.1801   -1.9465   -4.8620 O   0  0  0  0  0  0  0  0  0  0  0  0
   18.5039   -2.0825   -7.1970 C   0  0  0  0  0  0  0  0  0  0  0  0
   17.4679   -3.1609   -6.9804 C   0  0  0  0  0  0  0  0  0  0  0  0
   16.1378   -2.6099   -7.4499 C   0  0  2  0  0  0  0  0  0  0  0  0
   16.4140   -1.8275   -8.5830 O   0  0  0  0  0  0  0  0  0  0  0  0
   15.5539   -1.6494   -6.4129 C   0  0  0  0  0  3  0  0  0  0  0  0
   15.5879   -2.2628   -5.0284 C   0  0  0  0  0  0  0  0  0  0  0  0
   16.9737   -2.5504   -4.5801 C   0  0  0  0  0  0  0  0  0  0  0  0
   16.8413   -3.5647   -3.8032 N   0  0  0  0  0  4  0  0  0  0  0  0
   15.5585   -4.0737   -3.6083 N   0  0  0  0  0  0  0  0  0  0  0  0
   14.8097   -4.7097   -4.6901 C   0  0  0  0  0  0  0  0  0  0  0  0
   15.4027   -5.9130   -5.0887 O   0  0  0  0  0  0  0  0  0  0  0  0
   15.5247   -6.1606   -6.4461 C   0  0  0  0  0  0  0  0  0  0  0  0
   16.7357   -6.3556   -6.9465 C   0  0  0  0  0  0  0  0  0  0  0  0
   16.8813   -6.6754   -8.7063 S   0  0  0  0  0  1  0  0  0  0  0  0
  1  2  1  0
  2  3  1  0
  2  4  1  0
  4  5  1  0
  5  6  1  0
  6  7  1  0
  7  8  1  6
  7  9  1  0
 10  9  1  1
 10 11  1  0
 11 12  1  0
 12 13  1  6
 12 14  1  0
 14 15  1  0
 15 16  1  1
 15 17  1  0
 17 18  1  0
 19 18  1  1
 19 20  1  0
 19 21  1  0
 21 22  1  0
 22 23  1  0
 23 24  1  6
 23 25  1  0
 25 26  1  0
 26 27  1  0
 27 28  2  3
 28 29  1  0
 29 30  1  0
 30 31  1  0
 31 32  1  0
 32 33  2  3
 33 34  1  0
 28 10  1  0
 27 20  1  0
M  CHG  2  28   1  34   1
M  RAD  3   9   2  25   2  34   3
M  END
>  <docking_score>  (2) 
-3.6160000000000001

$$$$

     RDKit          3D

 34 35  0  0  0  0  0  0  0  0999 V2000
    9.3489   14.4527    4.4338 C   0  0  0  0  0  0  0  0  0  0  0  0
    8.5992   15.4266    3.5303 C   0  0  0  0  0  0  0  0  0  0  0  0
    9.5727   16.0726    2.5763 C   0  0  0  0  0  0  0  0  0  0  0  0
    7.5651   14.6127    2.7513 C   0  0  0  0  0  0  0  0  0  0  0  0
    8.1451   14.2897    1.3921 C   0  0  0  0  0  0  0  0  0  0  0  0
    7.5488   13.0421    0.8027 C   0  0  0  0  0  0  0  0  0  0  0  0
    6.3800   12.6204    1.6534 C   0  0  1  0  0  0  0  0  0  0  0  0
    5.3286   11.8752    0.8787 C   0  0  0  0  0  0  0  0  0  0  0  0
    6.8034   11.8939    2.9005 C   0  0  0  0  0  3  0  0  0  0  0  0
    5.7422   11.1241    3.5606 C   0  0  2  0  0  0  0  0  0  0  0  0
    5.5961    9.7157    3.2439 C   0  0  0  0  0  0  0  0  0  0  0  0
    4.3529    9.2600    2.5997 C   0  0  2  0  0  0  0  0  0  0  0  0
    3.3945   10.3562    2.2157 C   0  0  0  0  0  0  0  0  0  0  0  0
    3.7071    8.0602    3.1709 C   0  0  0  0  0  0  0  0  0  0  0  0
    4.0997    7.6792    4.5448 C   0  0  1  0  0  0  0  0  0  0  0  0
    3.9882    6.1516    4.6512 C   0  0  0  0  0  0  0  0  0  0  0  0
    5.4951    8.0399    4.9363 C   0  0  0  0  0  0  0  0  0  0  0  0
    5.4627    8.5245    6.3911 C   0  0  0  0  0  0  0  0  0  0  0  0
    4.1591    9.2868    6.5618 C   0  0  2  0  0  0  0  0  0  0  0  0
    3.9440   10.0267    5.4044 O   0  0  0  0  0  0  0  0  0  0  0  0
    4.1633   10.1918    7.7497 C   0  0  0  0  0  0  0  0  0  0  0  0
    4.5357   11.5918    7.3202 C   0  0  0  0  0  0  0  0  0  0  0  0
    3.3511   12.4862    7.6199 C   0  0  2  0  0  0  0  0  0  0  0  0
    2.8010   12.0199    8.8250 O   0  0  0  0  0  0  0  0  0  0  0  0
    2.2575   12.3064    6.5660 C   0  0  0  0  0  3  0  0  0  0  0  0
    2.8356   12.3853    5.1682 C   0  0  0  0  0  0  0  0  0  0  0  0
    3.8258   11.3089    4.9131 C   0  0  0  0  0  0  0  0  0  0  0  0
    4.6383   11.8328    4.0672 N   0  0  0  0  0  4  0  0  0  0  0  0
    4.3967   13.1425    3.6560 N   0  0  0  0  0  0  0  0  0  0  0  0
    4.8442   14.2910    4.4409 C   0  0  0  0  0  0  0  0  0  0  0  0
    5.7469   13.9113    5.4406 O   0  0  0  0  0  0  0  0  0  0  0  0
    5.9815   14.7993    6.4776 C   0  0  0  0  0  0  0  0  0  0  0  0
    7.1011   14.6751    7.1748 C   0  0  0  0  0  0  0  0  0  0  0  0
    7.3940   15.8311    8.5157 S   0  0  0  0  0  1  0  0  0  0  0  0
  1  2  1  0
  2  3  1  0
  2  4  1  0
  4  5  1  0
  5  6  1  0
  6  7  1  0
  7  8  1  6
  7  9  1  0
 10  9  1  6
 10 11  1  0
 11 12  1  0
 12 13  1  1
 12 14  1  0
 14 15  1  0
 15 16  1  6
 15 17  1  0
 17 18  1  0
 19 18  1  6
 19 20  1  0
 19 21  1  0
 21 22  1  0
 22 23  1  0
 23 24  1  1
 23 25  1  0
 25 26  1  0
 26 27  1  0
 27 28  2  3
 28 29  1  0
 29 30  1  0
 30 31  1  0
 31 32  1  0
 32 33  2  3
 33 34  1  0
 28 10  1  0
 27 20  1  0
M  CHG  2  28   1  34   1
M  RAD  3   9   2  25   2  34   3
M  END
>  <docking_score>  (3) 
-1.399

$$$$
