
     RDKit          3D

 35 38  0  0  0  0  0  0  0  0999 V2000
    4.7734    9.3687    9.6014 C   0  0  0  0  0  0  0  0  0  0  0  0
    3.7765    9.4219    8.4875 C   0  0  1  0  0  0  0  0  0  0  0  0
    3.3723   10.8056    8.1044 C   0  0  0  0  0  0  0  0  0  0  0  0
    4.0881    8.5230    7.3367 C   0  0  0  0  0  0  0  0  0  0  0  0
    3.0273    7.4348    7.2470 C   0  0  0  0  0  0  0  0  0  0  0  0
    2.3262    7.4880    5.9076 C   0  0  0  0  0  0  0  0  0  0  0  0
    3.2827    7.5777    4.7523 C   0  0  1  0  0  0  0  0  0  0  0  0
    3.4357    6.3027    3.9899 C   0  0  0  0  0  0  0  0  0  0  0  0
    3.0014    8.7626    3.8555 C   0  0  0  0  0  3  0  0  0  0  0  0
    3.7983    8.6095    2.5778 C   0  0  0  0  0  0  0  0  0  0  0  0
    4.0726    9.9690    1.9954 C   0  0  0  0  0  0  0  0  0  0  0  0
    5.5632   10.1942    1.7501 C   0  0  0  0  0  3  0  0  0  0  0  0
    5.7405   11.6918    1.5213 C   0  0  0  0  0  0  0  0  0  0  0  0
    6.3611    9.8449    2.9903 C   0  0  0  0  0  3  0  0  0  0  0  0
    5.5711   10.0496    4.2502 C   0  0  0  0  0  0  0  0  0  0  0  0
    6.2654   10.9292    5.2541 C   0  0  1  0  0  0  0  0  0  0  0  0
    7.6530   11.1363    4.9325 N   0  0  0  0  0  0  0  0  0  0  0  0
    5.4896   12.2021    5.3872 C   0  0  2  0  0  0  0  0  0  0  0  0
    6.3517   13.4294    5.4405 C   0  0  0  0  0  0  0  0  0  0  0  0
    5.9653   14.3143    4.2753 C   0  0  0  0  0  3  0  0  0  0  0  0
    6.4803   15.7094    4.4138 C   0  0  0  0  0  0  0  0  0  0  0  0
    6.2364   13.6917    2.9445 C   0  0  0  0  0  3  0  0  0  0  0  0
    5.4700   12.4048    2.8075 C   0  0  1  0  0  0  0  0  0  0  0  0
    4.1023   12.5710    3.0271 O   0  0  0  0  0  0  0  0  0  0  0  0
    3.8751   13.4749    3.9560 O   0  0  0  0  0  0  0  0  0  0  0  0
    2.9319   13.0438    4.7798 O   0  0  0  0  0  0  0  0  0  0  0  0
    3.2450   12.5764    6.0328 N   0  0  0  0  0  0  0  0  0  0  0  0
    4.4228   12.1709    6.3703 C   0  0  0  0  0  0  0  0  0  0  0  0
    4.5810   11.6937    7.7829 C   0  0  0  0  0  3  0  0  0  0  0  0
    4.4050   13.1716    8.8391 S   0  0  0  0  0  0  0  0  0  0  0  0
    5.9018   14.0018    8.9370 O   0  0  0  0  0  0  0  0  0  0  0  0
    5.9244   15.0809    8.2086 O   0  0  0  0  0  0  0  0  0  0  0  0
    7.2349   15.3553    7.8760 C   0  0  0  0  0  0  0  0  0  0  0  0
    7.4747   15.4640    6.4025 C   0  0  0  0  0  0  0  0  0  0  0  0
    6.3905   16.0672    5.7659 O   0  0  0  0  0  0  0  0  0  0  0  0
  2  1  1  1
  2  3  1  0
  2  4  1  0
  4  5  1  0
  5  6  1  0
  6  7  1  0
  7  8  1  6
  7  9  1  0
  9 10  1  0
 10 11  1  0
 11 12  1  0
 12 13  1  0
 12 14  1  0
 14 15  1  0
 15 16  1  0
 16 17  1  6
 16 18  1  0
 18 19  1  1
 19 20  1  0
 20 21  1  0
 20 22  1  0
 22 23  1  0
 23 24  1  0
 24 25  1  0
 25 26  1  0
 26 27  1  0
 27 28  2  3
 28 29  1  0
 29 30  1  0
 30 31  1  0
 31 32  1  0
 32 33  1  0
 33 34  1  0
 34 35  1  0
 29  3  1  0
 23 13  1  6
 28 18  1  0
 35 21  1  0
M  RAD  6   9   2  12   2  14   2  20   2  22   2  29   2
M  END
>  <docking_score>  (1) 
-5.4249999999999998

$$$$

     RDKit          3D

 35 38  0  0  0  0  0  0  0  0999 V2000
   14.5708   -7.4014   -4.2222 C   0  0  0  0  0  0  0  0  0  0  0  0
   15.6135   -7.2504   -5.2839 C   0  0  1  0  0  0  0  0  0  0  0  0
   15.3501   -6.1312   -6.2341 C   0  0  0  0  0  0  0  0  0  0  0  0
   17.0186   -7.3255   -4.7844 C   0  0  0  0  0  0  0  0  0  0  0  0
   17.6849   -8.5751   -5.3434 C   0  0  0  0  0  0  0  0  0  0  0  0
   18.9027   -8.2049   -6.1609 C   0  0  0  0  0  0  0  0  0  0  0  0
   19.8048   -7.2325   -5.4551 C   0  0  1  0  0  0  0  0  0  0  0  0
   21.0521   -7.8466   -4.9099 C   0  0  0  0  0  0  0  0  0  0  0  0
   20.0770   -5.9914   -6.2756 C   0  0  0  0  0  3  0  0  0  0  0  0
   21.2119   -5.2209   -5.6360 C   0  0  0  0  0  0  0  0  0  0  0  0
   21.0801   -3.7624   -5.9794 C   0  0  0  0  0  0  0  0  0  0  0  0
   21.0713   -2.8812   -4.7320 C   0  0  0  0  0  3  0  0  0  0  0  0
   20.5713   -1.5105   -5.1765 C   0  0  0  0  0  0  0  0  0  0  0  0
   20.0692   -3.4049   -3.7228 C   0  0  0  0  0  3  0  0  0  0  0  0
   18.9257   -4.1234   -4.3782 C   0  0  0  0  0  0  0  0  0  0  0  0
   17.5767   -3.5988   -3.9673 C   0  0  1  0  0  0  0  0  0  0  0  0
   17.6521   -2.7385   -2.8159 N   0  0  0  0  0  0  0  0  0  0  0  0
   16.9382   -2.9487   -5.1545 C   0  0  2  0  0  0  0  0  0  0  0  0
   16.2565   -1.6503   -4.8354 C   0  0  0  0  0  0  0  0  0  0  0  0
   16.9125   -0.5695   -5.6669 C   0  0  0  0  0  3  0  0  0  0  0  0
   16.1070    0.6871   -5.7204 C   0  0  0  0  0  0  0  0  0  0  0  0
   18.3533   -0.3585   -5.3325 C   0  0  0  0  0  3  0  0  0  0  0  0
   19.1284   -1.6288   -5.5507 C   0  0  1  0  0  0  0  0  0  0  0  0
   18.9703   -2.1368   -6.8404 O   0  0  0  0  0  0  0  0  0  0  0  0
   17.7522   -1.9240   -7.2905 O   0  0  0  0  0  0  0  0  0  0  0  0
   17.2990   -3.0143   -7.8904 O   0  0  0  0  0  0  0  0  0  0  0  0
   16.3797   -3.8301   -7.2773 N   0  0  0  0  0  0  0  0  0  0  0  0
   16.1706   -3.8403   -6.0038 C   0  0  0  0  0  0  0  0  0  0  0  0
   15.1274   -4.7974   -5.5102 C   0  0  0  0  0  3  0  0  0  0  0  0
   13.5289   -4.1629   -6.1209 S   0  0  0  0  0  0  0  0  0  0  0  0
   12.9380   -2.9508   -5.0623 O   0  0  0  0  0  0  0  0  0  0  0  0
   13.0848   -1.7501   -5.5443 O   0  0  0  0  0  0  0  0  0  0  0  0
   13.1453   -0.8614   -4.4907 C   0  0  0  0  0  0  0  0  0  0  0  0
   14.3790   -0.0138   -4.4847 C   0  0  0  0  0  0  0  0  0  0  0  0
   14.7541    0.3267   -5.7840 O   0  0  0  0  0  0  0  0  0  0  0  0
  2  1  1  1
  2  3  1  0
  2  4  1  0
  4  5  1  0
  5  6  1  0
  6  7  1  0
  7  8  1  6
  7  9  1  0
  9 10  1  0
 10 11  1  0
 11 12  1  0
 12 13  1  0
 12 14  1  0
 14 15  1  0
 15 16  1  0
 16 17  1  1
 16 18  1  0
 18 19  1  1
 19 20  1  0
 20 21  1  0
 20 22  1  0
 22 23  1  0
 23 24  1  0
 24 25  1  0
 25 26  1  0
 26 27  1  0
 27 28  2  3
 28 29  1  0
 29 30  1  0
 30 31  1  0
 31 32  1  0
 32 33  1  0
 33 34  1  0
 34 35  1  0
 29  3  1  0
 23 13  1  6
 28 18  1  0
 35 21  1  0
M  RAD  6   9   2  12   2  14   2  20   2  22   2  29   2
M  END
>  <docking_score>  (2) 
-2.9849999999999999

$$$$
