
     RDKit          3D

 23 24  0  0  0  0  0  0  0  0999 V2000
    4.8551   10.7458    6.4972 C   0  0  0  0  0  0  0  0  0  0  0  0
    5.6146    9.7188    5.6676 C   0  0  1  0  0  0  0  0  0  0  0  0
    5.1472    8.3336    5.8948 C   0  0  0  0  0  0  0  0  0  0  0  0
    4.2335    7.7580    4.8690 C   0  0  2  0  0  0  0  0  0  0  0  0
    4.8628    6.6025    4.3752 O   0  0  0  0  0  0  0  0  0  0  0  0
    3.9794    8.6670    3.6951 C   0  0  2  0  0  0  0  0  0  0  0  0
    3.2845    8.0047    2.7057 O   0  0  0  0  0  0  0  0  0  0  0  0
    5.3630    9.1187    3.2355 C   0  0  1  0  0  0  0  0  0  0  0  0
    5.2698    9.7851    2.0056 O   0  0  0  0  0  0  0  0  0  0  0  0
    5.8051   10.1359    4.2513 C   0  0  1  0  0  0  0  0  0  0  0  0
    5.0866   11.3684    3.9283 N   0  0  0  0  0  0  0  0  0  0  0  0
    5.9872   12.4515    4.2074 C   0  0  1  0  0  0  0  0  0  0  0  0
    7.1513   12.5432    3.2648 C   0  0  0  0  0  0  0  0  0  0  0  0
    7.8962   13.8273    3.6108 C   0  0  2  0  0  0  0  0  0  0  0  0
    7.3209   14.8408    2.8284 O   0  0  0  0  0  0  0  0  0  0  0  0
    9.3716   13.7191    3.3434 C   0  0  0  0  0  0  0  0  0  0  0  0
    9.6759   14.6177    2.3256 O   0  0  0  0  0  0  0  0  0  0  0  0
    7.5935   14.1921    5.0547 C   0  0  1  0  0  0  0  0  0  0  0  0
    8.5251   15.0673    5.5797 O   0  0  0  0  0  0  0  0  0  0  0  0
    6.1828   14.7529    5.0760 C   0  0  2  0  0  0  0  0  0  0  0  0
    5.7176   14.8870    6.3938 O   0  0  0  0  0  0  0  0  0  0  0  0
    5.2696   13.7541    4.4065 C   0  0  1  0  0  0  0  0  0  0  0  0
    4.7960   14.1827    3.1806 O   0  0  0  0  0  0  0  0  0  0  0  0
  2  1  1  6
  2  3  1  0
  3  4  1  0
  4  5  1  6
  4  6  1  0
  6  7  1  6
  6  8  1  0
  8  9  1  6
  8 10  1  0
 10 11  1  6
 12 11  1  6
 12 13  1  0
 13 14  1  0
 14 15  1  6
 14 16  1  0
 16 17  1  0
 14 18  1  0
 18 19  1  6
 18 20  1  0
 20 21  1  1
 20 22  1  0
 22 23  1  6
 10  2  1  0
 22 12  1  0
M  END
>  <docking_score>  (1) 
-4.657

$$$$

     RDKit          3D

 23 24  0  0  0  0  0  0  0  0999 V2000
   17.4365   -1.7041   -2.8962 C   0  0  0  0  0  0  0  0  0  0  0  0
   15.9916   -2.1276   -3.1259 C   0  0  1  0  0  0  0  0  0  0  0  0
   15.0226   -1.0420   -2.8589 C   0  0  0  0  0  0  0  0  0  0  0  0
   14.4816   -0.3202   -4.0441 C   0  0  2  0  0  0  0  0  0  0  0  0
   13.0855   -0.4759   -4.0051 O   0  0  0  0  0  0  0  0  0  0  0  0
   14.9575   -0.8668   -5.3646 C   0  0  2  0  0  0  0  0  0  0  0  0
   14.2778   -0.2790   -6.4102 O   0  0  0  0  0  0  0  0  0  0  0  0
   14.7152   -2.3714   -5.2823 C   0  0  1  0  0  0  0  0  0  0  0  0
   14.9045   -2.9608   -6.5402 O   0  0  0  0  0  0  0  0  0  0  0  0
   15.8010   -2.8988   -4.3849 C   0  0  1  0  0  0  0  0  0  0  0  0
   17.0131   -2.9465   -5.2022 N   0  0  0  0  0  0  0  0  0  0  0  0
   17.4088   -4.3255   -5.2660 C   0  0  1  0  0  0  0  0  0  0  0  0
   17.6199   -4.8419   -6.6592 C   0  0  0  0  0  0  0  0  0  0  0  0
   18.1846   -6.2512   -6.5241 C   0  0  2  0  0  0  0  0  0  0  0  0
   19.5809   -6.1147   -6.4785 O   0  0  0  0  0  0  0  0  0  0  0  0
   17.7723   -7.1413   -7.6633 C   0  0  0  0  0  0  0  0  0  0  0  0
   16.6375   -6.5790   -8.2396 O   0  0  0  0  0  0  0  0  0  0  0  0
   17.7758   -6.8123   -5.1721 C   0  0  1  0  0  0  0  0  0  0  0  0
   17.8665   -8.1905   -5.1284 O   0  0  0  0  0  0  0  0  0  0  0  0
   18.6519   -6.1325   -4.1351 C   0  0  2  0  0  0  0  0  0  0  0  0
   18.1856   -6.3946   -2.8371 O   0  0  0  0  0  0  0  0  0  0  0  0
   18.5386   -4.6395   -4.3299 C   0  0  1  0  0  0  0  0  0  0  0  0
   19.6919   -4.0645   -4.8302 O   0  0  0  0  0  0  0  0  0  0  0  0
  2  1  1  6
  2  3  1  0
  3  4  1  0
  4  5  1  6
  4  6  1  0
  6  7  1  6
  6  8  1  0
  8  9  1  6
  8 10  1  0
 10 11  1  6
 12 11  1  6
 12 13  1  0
 13 14  1  0
 14 15  1  1
 14 16  1  0
 16 17  1  0
 14 18  1  0
 18 19  1  6
 18 20  1  0
 20 21  1  1
 20 22  1  0
 22 23  1  6
 10  2  1  0
 22 12  1  0
M  END
>  <docking_score>  (2) 
-4.3789999999999996

$$$$

     RDKit          3D

 23 24  0  0  0  0  0  0  0  0999 V2000
    2.4130    9.1558    6.6060 C   0  0  0  0  0  0  0  0  0  0  0  0
    3.5065    8.0956    6.5920 C   0  0  1  0  0  0  0  0  0  0  0  0
    3.1442    6.8827    7.3578 C   0  0  0  0  0  0  0  0  0  0  0  0
    2.6788    5.7072    6.5703 C   0  0  2  0  0  0  0  0  0  0  0  0
    3.5554    4.6509    6.8714 O   0  0  0  0  0  0  0  0  0  0  0  0
    2.7199    5.9133    5.0788 C   0  0  2  0  0  0  0  0  0  0  0  0
    2.4578    4.7337    4.4151 O   0  0  0  0  0  0  0  0  0  0  0  0
    4.1199    6.4479    4.7900 C   0  0  1  0  0  0  0  0  0  0  0  0
    4.3567    6.4604    3.4082 O   0  0  0  0  0  0  0  0  0  0  0  0
    4.0973    7.8822    5.2424 C   0  0  1  0  0  0  0  0  0  0  0  0
    3.3919    8.6243    4.1977 N   0  0  0  0  0  0  0  0  0  0  0  0
    4.1055    9.8578    4.0202 C   0  0  1  0  0  0  0  0  0  0  0  0
    5.4500    9.7038    3.3715 C   0  0  0  0  0  0  0  0  0  0  0  0
    5.9802   11.1107    3.1208 C   0  0  2  0  0  0  0  0  0  0  0  0
    5.5270   11.4822    1.8453 O   0  0  0  0  0  0  0  0  0  0  0  0
    7.4804   11.1750    3.1938 C   0  0  0  0  0  0  0  0  0  0  0  0
    7.8527   10.7501    4.4654 O   0  0  0  0  0  0  0  0  0  0  0  0
    5.3105   12.0647    4.0959 C   0  0  1  0  0  0  0  0  0  0  0  0
    6.0124   13.2465    4.2374 O   0  0  0  0  0  0  0  0  0  0  0  0
    3.8941   12.2790    3.5928 C   0  0  2  0  0  0  0  0  0  0  0  0
    3.1168   12.9434    4.5546 O   0  0  0  0  0  0  0  0  0  0  0  0
    3.2550   10.9251    3.3967 C   0  0  1  0  0  0  0  0  0  0  0  0
    3.0554   10.6024    2.0674 O   0  0  0  0  0  0  0  0  0  0  0  0
  2  1  1  6
  2  3  1  0
  3  4  1  0
  4  5  1  6
  4  6  1  0
  6  7  1  6
  6  8  1  0
  8  9  1  6
  8 10  1  0
 10 11  1  6
 12 11  1  6
 12 13  1  0
 13 14  1  0
 14 15  1  6
 14 16  1  0
 16 17  1  0
 14 18  1  0
 18 19  1  6
 18 20  1  0
 20 21  1  1
 20 22  1  0
 22 23  1  6
 10  2  1  0
 22 12  1  0
M  END
>  <docking_score>  (3) 
-4.3410000000000002

$$$$
