
     RDKit          3D

 16 16  0  0  0  0  0  0  0  0999 V2000
   16.5750   -3.9718   -1.6322 C   0  0  0  0  0  0  0  0  0  0  0  0
   17.1126   -3.9034   -3.0332 C   0  0  1  0  0  0  0  0  0  0  0  0
   16.3709   -4.7959   -4.0140 C   0  0  0  0  0  0  0  0  0  0  0  0
   16.0347   -3.9395   -5.2266 C   0  0  2  0  0  0  0  0  0  0  0  0
   17.2601   -3.3934   -5.6719 O   0  0  0  0  0  0  0  0  0  0  0  0
   15.0963   -2.8341   -4.7419 C   0  0  2  0  0  0  0  0  0  0  0  0
   14.5554   -2.1875   -5.8733 O   0  0  0  0  0  0  0  0  0  0  0  0
   15.9610   -1.8828   -3.9613 C   0  0  1  0  0  0  0  0  0  0  0  0
   15.2705   -1.3950   -2.8597 O   0  0  0  0  0  0  0  0  0  0  0  0
   17.2846   -2.5032   -3.5579 C   0  0  1  0  0  0  0  0  0  0  0  0
   17.9132   -1.6968   -2.5266 N   0  0  0  0  0  0  0  0  0  0  0  0
   19.1652   -1.2298   -3.1052 C   0  0  0  0  0  3  0  0  0  0  0  0
   20.2929   -1.3095   -2.1186 C   0  0  0  0  0  0  0  0  0  0  0  0
   19.8621   -2.1720   -1.0386 O   0  0  0  0  0  0  0  0  0  0  0  0
   20.5971   -3.3582   -0.8946 C   0  0  0  0  0  0  0  0  0  0  0  0
   20.3059   -4.3110   -1.6720 O   0  0  0  0  0  0  0  0  0  0  0  0
  2  1  1  1
  2  3  1  0
  3  4  1  0
  4  5  1  1
  4  6  1  0
  6  7  1  6
  6  8  1  0
  8  9  1  1
  8 10  1  0
 10 11  1  1
 11 12  1  0
 12 13  1  0
 13 14  1  0
 14 15  1  0
 15 16  2  0
 10  2  1  0
M  RAD  1  12   2
M  END
>  <docking_score>  (1) 
-3.7269999999999999

$$$$

     RDKit          3D

 16 16  0  0  0  0  0  0  0  0999 V2000
   16.7476   -4.0124   -1.5817 C   0  0  0  0  0  0  0  0  0  0  0  0
   17.7878   -3.9061   -2.6602 C   0  0  1  0  0  0  0  0  0  0  0  0
   19.0243   -4.7495   -2.3986 C   0  0  0  0  0  0  0  0  0  0  0  0
   19.3013   -5.5377   -3.6711 C   0  0  2  0  0  0  0  0  0  0  0  0
   19.3960   -4.5835   -4.7096 O   0  0  0  0  0  0  0  0  0  0  0  0
   18.1007   -6.4581   -3.8923 C   0  0  2  0  0  0  0  0  0  0  0  0
   18.4366   -7.3859   -4.9009 O   0  0  0  0  0  0  0  0  0  0  0  0
   16.9852   -5.5632   -4.3574 C   0  0  1  0  0  0  0  0  0  0  0  0
   15.7742   -5.9823   -3.8223 O   0  0  0  0  0  0  0  0  0  0  0  0
   17.2515   -4.1017   -4.0529 C   0  0  1  0  0  0  0  0  0  0  0  0
   16.0233   -3.3383   -4.1869 N   0  0  0  0  0  0  0  0  0  0  0  0
   16.1682   -2.5793   -5.4212 C   0  0  0  0  0  3  0  0  0  0  0  0
   14.8625   -1.9844   -5.8599 C   0  0  0  0  0  0  0  0  0  0  0  0
   15.0095   -0.5446   -5.8231 O   0  0  0  0  0  0  0  0  0  0  0  0
   13.9718    0.1435   -5.1767 C   0  0  0  0  0  0  0  0  0  0  0  0
   13.6734   -0.2352   -4.0085 O   0  0  0  0  0  0  0  0  0  0  0  0
  2  1  1  1
  2  3  1  0
  3  4  1  0
  4  5  1  6
  4  6  1  0
  6  7  1  6
  6  8  1  0
  8  9  1  1
  8 10  1  0
 10 11  1  1
 11 12  1  0
 12 13  1  0
 13 14  1  0
 14 15  1  0
 15 16  2  0
 10  2  1  0
M  RAD  1  12   2
M  END
>  <docking_score>  (2) 
-3.6699999999999999

$$$$

     RDKit          3D

 16 16  0  0  0  0  0  0  0  0999 V2000
   17.6957   -5.6937   -2.7543 C   0  0  0  0  0  0  0  0  0  0  0  0
   16.9061   -4.4584   -3.0821 C   0  0  1  0  0  0  0  0  0  0  0  0
   16.7101   -3.5289   -1.8963 C   0  0  0  0  0  0  0  0  0  0  0  0
   17.0932   -2.1307   -2.3604 C   0  0  2  0  0  0  0  0  0  0  0  0
   16.3061   -1.8688   -3.5049 O   0  0  0  0  0  0  0  0  0  0  0  0
   18.5772   -2.1761   -2.7254 C   0  0  2  0  0  0  0  0  0  0  0  0
   19.0284   -0.8509   -2.9020 O   0  0  0  0  0  0  0  0  0  0  0  0
   18.6513   -2.9298   -4.0246 C   0  0  1  0  0  0  0  0  0  0  0  0
   19.7800   -3.7384   -4.0507 O   0  0  0  0  0  0  0  0  0  0  0  0
   17.3909   -3.7254   -4.3040 C   0  0  1  0  0  0  0  0  0  0  0  0
   17.6427   -4.6950   -5.3555 N   0  0  0  0  0  0  0  0  0  0  0  0
   16.9498   -4.1854   -6.5305 C   0  0  0  0  0  3  0  0  0  0  0  0
   15.4645   -4.3650   -6.4166 C   0  0  0  0  0  0  0  0  0  0  0  0
   15.2087   -5.7851   -6.2985 O   0  0  0  0  0  0  0  0  0  0  0  0
   14.3021   -6.1449   -5.2903 C   0  0  0  0  0  0  0  0  0  0  0  0
   14.6379   -7.0973   -4.5306 O   0  0  0  0  0  0  0  0  0  0  0  0
  2  1  1  1
  2  3  1  0
  3  4  1  0
  4  5  1  6
  4  6  1  0
  6  7  1  6
  6  8  1  0
  8  9  1  1
  8 10  1  0
 10 11  1  6
 11 12  1  0
 12 13  1  0
 13 14  1  0
 14 15  1  0
 15 16  2  0
 10  2  1  0
M  RAD  1  12   2
M  END
>  <docking_score>  (3) 
-3.621

$$$$
