
     RDKit          3D

 32 35  0  0  0  0  0  0  0  0999 V2000
   20.8440   -4.1600   -2.4714 C   0  0  0  0  0  0  0  0  0  0  0  0
   20.1537   -2.9752   -1.8989 C   0  0  1  0  0  0  0  0  0  0  0  0
   19.6983   -3.2785   -0.4945 C   0  0  0  0  0  0  0  0  0  0  0  0
   21.0510   -1.7524   -1.9146 C   0  0  0  0  0  0  0  0  0  0  0  0
   21.2452   -1.2942   -3.3311 C   0  0  0  0  0  0  0  0  0  0  0  0
   20.2171   -1.8318   -4.2800 C   0  0  0  0  0  0  0  0  0  0  0  0
   19.3554   -0.7273   -4.8840 C   0  0  1  0  0  0  0  0  0  0  0  0
   20.1010    0.0877   -5.8887 C   0  0  0  0  0  0  0  0  0  0  0  0
   18.1422   -1.4297   -5.5055 C   0  0  1  0  0  0  0  0  0  0  0  0
   18.4506   -1.7702   -6.9410 C   0  0  0  0  0  0  0  0  0  0  0  0
   19.9355   -2.0609   -7.1344 C   0  0  0  0  0  0  0  0  0  0  0  0
   20.2364   -3.5340   -6.8777 C   0  0  2  0  0  0  0  0  0  0  0  0
   20.7453   -4.2244   -8.1030 C   0  0  0  0  0  0  0  0  0  0  0  0
   19.0225   -4.1553   -6.2816 C   0  0  1  0  0  0  0  0  0  0  0  0
   18.8581   -5.6068   -6.5343 C   0  0  0  0  0  0  0  0  0  0  0  0
   17.7875   -5.7639   -7.6227 C   0  0  1  0  0  0  0  0  0  0  0  0
   18.3126   -6.5629   -8.6874 N   0  0  0  0  0  1  0  0  0  0  0  0
   16.5824   -6.4723   -7.0468 C   0  0  0  0  0  3  0  0  0  0  0  0
   15.3441   -5.6098   -7.0563 C   0  0  0  0  0  0  0  0  0  0  0  0
   15.1603   -4.8961   -5.7143 C   0  0  2  0  0  0  0  0  0  0  0  0
   15.7444   -5.7681   -4.6528 C   0  0  0  0  0  1  0  0  0  0  0  0
   13.6670   -4.8052   -5.4748 C   0  0  0  0  0  0  0  0  0  0  0  0
   15.8124   -3.5611   -5.8053 C   0  0  1  0  0  0  0  0  0  0  0  0
   15.0185   -2.5196   -6.5090 C   0  0  0  0  0  0  0  0  0  0  0  0
   14.5808   -1.3502   -5.1633 S   0  0  0  0  0  0  0  0  0  0  0  0
   15.5276   -2.1759   -3.8235 C   0  0  0  0  0  0  0  0  0  0  0  0
   16.4446   -3.0427   -4.6067 C   0  0  2  0  0  0  0  0  0  0  0  0
   17.8501   -2.6265   -4.6704 C   0  0  1  0  0  0  0  0  0  0  0  0
   18.8454   -3.7132   -4.8832 C   0  0  1  0  0  0  0  0  0  0  0  0
   18.8958   -4.7568   -3.8450 C   0  0  0  0  0  0  0  0  0  0  0  0
   20.2831   -4.9761   -3.3557 C   0  0  0  0  0  0  0  0  0  0  0  0
   21.0578   -6.1374   -3.8706 C   0  0  0  0  0  0  0  0  0  0  0  0
  1  2  1  0
  2  3  1  1
  2  4  1  0
  4  5  1  0
  5  6  1  0
  6  7  1  0
  7  8  1  6
  7  9  1  0
  9 10  1  6
 10 11  1  0
 11 12  1  0
 12 13  1  6
 12 14  1  0
 14 15  1  1
 15 16  1  0
 16 17  1  6
 16 18  1  0
 18 19  1  0
 19 20  1  0
 20 21  1  1
 20 22  1  0
 20 23  1  0
 23 24  1  1
 24 25  1  0
 25 26  1  0
 27 26  1  6
 28 27  1  6
 28 29  1  0
 29 30  1  1
 30 31  1  0
 31 32  1  0
  1 31  2  3
 28  9  1  0
 29 14  1  0
 27 23  1  0
M  CHG  1  17   1
M  RAD  3  17   2  18   2  21   2
M  END
>  <docking_score>  (1) 
-6.6749999999999998

$$$$

     RDKit          3D

 32 35  0  0  0  0  0  0  0  0999 V2000
   15.7802   -6.7520   -5.6093 C   0  0  0  0  0  0  0  0  0  0  0  0
   16.8372   -6.7927   -6.6528 C   0  0  1  0  0  0  0  0  0  0  0  0
   17.6367   -8.0635   -6.5209 C   0  0  0  0  0  0  0  0  0  0  0  0
   16.2440   -6.6797   -8.0442 C   0  0  0  0  0  0  0  0  0  0  0  0
   15.7145   -5.2898   -8.2494 C   0  0  0  0  0  0  0  0  0  0  0  0
   16.2663   -4.2901   -7.2786 C   0  0  0  0  0  0  0  0  0  0  0  0
   17.1001   -3.2149   -7.9685 C   0  0  1  0  0  0  0  0  0  0  0  0
   16.2580   -2.2527   -8.7398 C   0  0  0  0  0  0  0  0  0  0  0  0
   17.8926   -2.5164   -6.8571 C   0  0  1  0  0  0  0  0  0  0  0  0
   17.0910   -1.3511   -6.3365 C   0  0  0  0  0  0  0  0  0  0  0  0
   15.5932   -1.6260   -6.4244 C   0  0  0  0  0  0  0  0  0  0  0  0
   15.0982   -2.3344   -5.1675 C   0  0  2  0  0  0  0  0  0  0  0  0
   14.1055   -1.5088   -4.4125 C   0  0  0  0  0  0  0  0  0  0  0  0
   16.2868   -2.7460   -4.3722 C   0  0  1  0  0  0  0  0  0  0  0  0
   16.0698   -2.8568   -2.9098 C   0  0  0  0  0  0  0  0  0  0  0  0
   16.6940   -1.6149   -2.2588 C   0  0  1  0  0  0  0  0  0  0  0  0
   15.7145   -0.9717   -1.4374 N   0  0  0  0  0  1  0  0  0  0  0  0
   17.8506   -2.0333   -1.3797 C   0  0  0  0  0  3  0  0  0  0  0  0
   19.1709   -1.4797   -1.8572 C   0  0  0  0  0  0  0  0  0  0  0  0
   19.9025   -2.4901   -2.7448 C   0  0  2  0  0  0  0  0  0  0  0  0
   19.5157   -3.8581   -2.2893 C   0  0  0  0  0  1  0  0  0  0  0  0
   21.3825   -2.3092   -2.4753 C   0  0  0  0  0  0  0  0  0  0  0  0
   19.5361   -2.2149   -4.1610 C   0  0  1  0  0  0  0  0  0  0  0  0
   20.2633   -1.0810   -4.7902 C   0  0  0  0  0  0  0  0  0  0  0  0
   21.3233   -1.9087   -6.0397 S   0  0  0  0  0  0  0  0  0  0  0  0
   20.6954   -3.6151   -5.7805 C   0  0  0  0  0  0  0  0  0  0  0  0
   19.4260   -3.3514   -5.0562 C   0  0  2  0  0  0  0  0  0  0  0  0
   18.1840   -3.5380   -5.8147 C   0  0  1  0  0  0  0  0  0  0  0  0
   16.9754   -3.8830   -5.0166 C   0  0  1  0  0  0  0  0  0  0  0  0
   17.0425   -5.1395   -4.2511 C   0  0  0  0  0  0  0  0  0  0  0  0
   15.8623   -6.0053   -4.5146 C   0  0  0  0  0  0  0  0  0  0  0  0
   14.7495   -6.0334   -3.5273 C   0  0  0  0  0  0  0  0  0  0  0  0
  1  2  1  0
  2  3  1  6
  2  4  1  0
  4  5  1  0
  5  6  1  0
  6  7  1  0
  7  8  1  1
  7  9  1  0
  9 10  1  1
 10 11  1  0
 11 12  1  0
 12 13  1  1
 12 14  1  0
 14 15  1  1
 15 16  1  0
 16 17  1  1
 16 18  1  0
 18 19  1  0
 19 20  1  0
 20 21  1  1
 20 22  1  0
 20 23  1  0
 23 24  1  6
 24 25  1  0
 25 26  1  0
 27 26  1  6
 28 27  1  1
 28 29  1  0
 29 30  1  1
 30 31  1  0
 31 32  1  0
  1 31  2  3
 28  9  1  0
 29 14  1  0
 27 23  1  0
M  CHG  1  17   1
M  RAD  3  17   2  18   2  21   2
M  END
>  <docking_score>  (2) 
-5.6589999999999998

$$$$

     RDKit          3D

 32 35  0  0  0  0  0  0  0  0999 V2000
   15.0477   -3.2151   -6.5611 C   0  0  0  0  0  0  0  0  0  0  0  0
   15.1655   -4.6827   -6.3605 C   0  0  1  0  0  0  0  0  0  0  0  0
   14.0146   -5.1779   -5.5228 C   0  0  0  0  0  0  0  0  0  0  0  0
   15.2140   -5.4188   -7.6858 C   0  0  0  0  0  0  0  0  0  0  0  0
   16.5207   -5.1331   -8.3677 C   0  0  0  0  0  0  0  0  0  0  0  0
   17.5741   -4.6016   -7.4434 C   0  0  0  0  0  0  0  0  0  0  0  0
   18.7622   -5.5501   -7.3159 C   0  0  1  0  0  0  0  0  0  0  0  0
   19.6097   -5.5653   -8.5452 C   0  0  0  0  0  0  0  0  0  0  0  0
   19.5483   -5.0801   -6.0861 C   0  0  1  0  0  0  0  0  0  0  0  0
   20.5861   -4.0759   -6.5176 C   0  0  0  0  0  0  0  0  0  0  0  0
   20.1097   -3.2701   -7.7220 C   0  0  0  0  0  0  0  0  0  0  0  0
   19.3243   -2.0414   -7.2748 C   0  0  2  0  0  0  0  0  0  0  0  0
   19.9964   -0.7681   -7.6796 C   0  0  0  0  0  0  0  0  0  0  0  0
   19.0692   -2.1642   -5.8137 C   0  0  1  0  0  0  0  0  0  0  0  0
   18.9110   -0.8841   -5.0830 C   0  0  0  0  0  0  0  0  0  0  0  0
   20.2183   -0.6271   -4.3209 C   0  0  1  0  0  0  0  0  0  0  0  0
   20.7106    0.6739   -4.6565 N   0  0  0  0  0  1  0  0  0  0  0  0
   19.9511   -0.6649   -2.8334 C   0  0  0  0  0  3  0  0  0  0  0  0
   20.6863   -1.7863   -2.1411 C   0  0  0  0  0  0  0  0  0  0  0  0
   19.7971   -3.0250   -2.0037 C   0  0  2  0  0  0  0  0  0  0  0  0
   18.3833   -2.5588   -1.8927 C   0  0  0  0  0  1  0  0  0  0  0  0
   20.1755   -3.6849   -0.6933 C   0  0  0  0  0  0  0  0  0  0  0  0
   20.0376   -3.9023   -3.1820 C   0  0  1  0  0  0  0  0  0  0  0  0
   21.2684   -4.7329   -3.1073 C   0  0  0  0  0  0  0  0  0  0  0  0
   20.6097   -6.4393   -2.9503 S   0  0  0  0  0  0  0  0  0  0  0  0
   18.8302   -6.0153   -3.1143 C   0  0  0  0  0  0  0  0  0  0  0  0
   18.9083   -4.6523   -3.6989 C   0  0  2  0  0  0  0  0  0  0  0  0
   18.5630   -4.5241   -5.1191 C   0  0  1  0  0  0  0  0  0  0  0  0
   18.0455   -3.1960   -5.5494 C   0  0  1  0  0  0  0  0  0  0  0  0
   16.8004   -2.7466   -4.9037 C   0  0  0  0  0  0  0  0  0  0  0  0
   15.7846   -2.3264   -5.9054 C   0  0  0  0  0  0  0  0  0  0  0  0
   15.5917   -0.8762   -6.1771 C   0  0  0  0  0  0  0  0  0  0  0  0
  1  2  1  0
  2  3  1  1
  2  4  1  0
  4  5  1  0
  5  6  1  0
  6  7  1  0
  7  8  1  6
  7  9  1  0
  9 10  1  6
 10 11  1  0
 11 12  1  0
 12 13  1  1
 12 14  1  0
 14 15  1  6
 15 16  1  0
 16 17  1  6
 16 18  1  0
 18 19  1  0
 19 20  1  0
 20 21  1  1
 20 22  1  0
 20 23  1  0
 23 24  1  1
 24 25  1  0
 25 26  1  0
 27 26  1  6
 28 27  1  1
 28 29  1  0
 29 30  1  1
 30 31  1  0
 31 32  1  0
  1 31  2  3
 28  9  1  0
 29 14  1  0
 27 23  1  0
M  CHG  1  17   1
M  RAD  3  17   2  18   2  21   2
M  END
>  <docking_score>  (3) 
-5.3630000000000004

$$$$
