
     RDKit          3D

 11 11  0  0  0  0  0  0  0  0999 V2000
    6.8639    2.5420   -4.6139 O   0  0  0  0  0  0  0  0  0  0  0  0
    5.9875    2.4415   -5.4874 C   0  0  0  0  0  0  0  0  0  0  0  0
    5.8200    1.3436   -6.3212 O   0  0  0  0  0  0  0  0  0  0  0  0
    6.9733    0.5966   -6.6555 C   0  0  0  0  0  0  0  0  0  0  0  0
    6.8500    0.0926   -8.0704 C   0  0  0  0  0  0  0  0  0  0  0  0
    5.4032   -0.2728   -8.2981 C   0  0  0  0  0  0  0  0  0  0  0  0
    5.3489   -1.6900   -8.6995 C   0  0  0  0  0  0  0  0  0  0  0  0
    5.2372   -2.6100   -7.7725 C   0  0  0  0  0  0  0  0  0  0  0  0
    5.1403   -2.6733   -6.3219 C   0  0  0  0  0  3  0  0  0  0  0  0
    5.0726   -4.1076   -6.5309 C   0  0  0  0  0  0  0  0  0  0  0  0
    5.1588   -4.0390   -7.8116 C   0  0  0  0  0  0  0  0  0  0  0  0
  1  2  2  0
  2  3  1  0
  3  4  1  0
  4  5  1  0
  5  6  1  0
  6  7  1  0
  7  8  2  3
  8  9  1  0
  9 10  1  0
 10 11  2  0
 11  8  1  0
M  RAD  1   9   2
M  END
>  <docking_score>  (1) 
-4.5410000000000004

$$$$

     RDKit          3D

 11 11  0  0  0  0  0  0  0  0999 V2000
    6.6704    2.5274   -4.6161 O   0  0  0  0  0  0  0  0  0  0  0  0
    6.5039    2.1197   -5.7767 C   0  0  0  0  0  0  0  0  0  0  0  0
    6.4629    0.7828   -6.1501 O   0  0  0  0  0  0  0  0  0  0  0  0
    7.2640   -0.1238   -5.4179 C   0  0  0  0  0  0  0  0  0  0  0  0
    6.8335   -1.5345   -5.7275 C   0  0  0  0  0  0  0  0  0  0  0  0
    5.5353   -1.4557   -6.4936 C   0  0  0  0  0  0  0  0  0  0  0  0
    5.6650   -2.2956   -7.6978 C   0  0  0  0  0  0  0  0  0  0  0  0
    5.2613   -3.5418   -7.6508 C   0  0  0  0  0  0  0  0  0  0  0  0
    4.6637   -4.4460   -6.6797 C   0  0  0  0  0  3  0  0  0  0  0  0
    4.7139   -5.4126   -7.7608 C   0  0  0  0  0  0  0  0  0  0  0  0
    5.2418   -4.6046   -8.6098 C   0  0  0  0  0  0  0  0  0  0  0  0
  1  2  2  0
  2  3  1  0
  3  4  1  0
  4  5  1  0
  5  6  1  0
  6  7  1  0
  7  8  2  3
  8  9  1  0
  9 10  1  0
 10 11  2  0
 11  8  1  0
M  RAD  1   9   2
M  END
>  <docking_score>  (2) 
-4.4500000000000002

$$$$

     RDKit          3D

 11 11  0  0  0  0  0  0  0  0999 V2000
    5.4052   -6.3845   -8.1911 O   0  0  0  0  0  0  0  0  0  0  0  0
    5.2281   -5.3213   -7.5753 C   0  0  0  0  0  0  0  0  0  0  0  0
    5.3621   -4.0534   -8.1258 O   0  0  0  0  0  0  0  0  0  0  0  0
    5.7724   -3.0088   -7.2654 C   0  0  0  0  0  0  0  0  0  0  0  0
    5.2052   -1.7026   -7.7587 C   0  0  0  0  0  0  0  0  0  0  0  0
    6.3674   -0.8150   -8.1327 C   0  0  0  0  0  0  0  0  0  0  0  0
    5.9841    0.5802   -7.8518 C   0  0  0  0  0  0  0  0  0  0  0  0
    6.3231    1.1143   -6.7037 C   0  0  0  0  0  0  0  0  0  0  0  0
    7.0329    0.7169   -5.4970 C   0  0  0  0  0  3  0  0  0  0  0  0
    6.7426    2.0673   -5.0522 C   0  0  0  0  0  0  0  0  0  0  0  0
    6.1177    2.4068   -6.1230 C   0  0  0  0  0  0  0  0  0  0  0  0
  1  2  2  0
  2  3  1  0
  3  4  1  0
  4  5  1  0
  5  6  1  0
  6  7  1  0
  7  8  2  3
  8  9  1  0
  9 10  1  0
 10 11  2  0
 11  8  1  0
M  RAD  1   9   2
M  END
>  <docking_score>  (3) 
-4.202

$$$$
