
     RDKit          3D

 38 38  0  0  0  0  0  0  0  0999 V2000
   16.7965   -4.1605   -8.6291 O   0  0  0  0  0  0  0  0  0  0  0  0
   16.6643   -5.5298   -8.7366 C   0  0  0  0  0  0  0  0  0  0  0  0
   15.5527   -6.0580   -7.8312 C   0  0  0  0  0  3  0  0  0  0  0  0
   14.5851   -5.0267   -7.5771 N   0  0  0  0  0  0  0  0  0  0  0  0
   14.5129   -4.7735   -6.1543 C   0  0  2  0  0  0  0  0  0  0  0  0
   13.1205   -4.3779   -5.7314 C   0  0  0  0  0  0  0  0  0  0  0  0
   12.2119   -5.2515   -6.2988 O   0  0  0  0  0  0  0  0  0  0  0  0
   15.4490   -3.6409   -5.8347 C   0  0  1  0  0  0  0  0  0  0  0  0
   15.3992   -2.6325   -6.8001 O   0  0  0  0  0  0  0  0  0  0  0  0
   15.1467   -3.0481   -4.4980 C   0  0  2  0  0  0  0  0  0  0  0  0
   14.0070   -2.2790   -4.4565 O   0  0  0  0  0  0  0  0  0  0  0  0
   16.3506   -2.4046   -3.8890 C   0  0  1  0  0  0  0  0  0  0  0  0
   16.9007   -1.4026   -4.8949 C   0  0  0  0  0  0  0  0  0  0  0  0
   16.0612   -1.6593   -2.6263 C   0  0  2  0  0  0  0  0  0  0  0  0
   15.3843   -0.4874   -2.9592 O   0  0  0  0  0  0  0  0  0  0  0  0
   17.2292   -1.3238   -1.9339 O   0  0  0  0  0  0  0  0  0  0  0  0
   18.0827   -2.4255   -1.9257 C   0  0  0  0  0  0  0  0  0  0  0  0
   18.0732   -2.9823   -0.6506 O   0  0  0  0  0  0  0  0  0  0  0  0
   19.0916   -3.8765   -0.4417 C   0  0  0  0  0  0  0  0  0  0  0  0
   19.6509   -4.3726   -1.6131 O   0  0  0  0  0  0  0  0  0  0  0  0
   18.8456   -4.0276   -2.6713 C   0  0  2  0  0  0  0  0  0  0  0  0
   18.1789   -5.0836   -3.2478 O   0  0  0  0  0  0  0  0  0  0  0  0
   18.9495   -6.2234   -3.3867 C   0  0  2  0  0  0  0  0  0  0  0  0
   20.3898   -5.8656   -3.7185 C   0  0  0  0  0  0  0  0  0  0  0  0
   18.4212   -7.0219   -4.5694 C   0  0  0  0  0  0  0  0  0  0  0  0
   19.4934   -8.4402   -4.9287 S   0  0  0  0  0  0  0  0  0  0  0  0
   20.5567   -8.1410   -6.2228 O   0  0  0  0  0  0  0  0  0  0  0  0
   21.1787   -6.9977   -6.1232 O   0  0  0  0  0  0  0  0  0  0  0  0
   21.3825   -6.4064   -7.3557 C   0  0  0  0  0  0  0  0  0  0  0  0
   20.1751   -6.1201   -8.0078 O   0  0  0  0  0  0  0  0  0  0  0  0
   19.7704   -4.9498   -7.5522 O   0  0  0  0  0  0  0  0  0  0  0  0
   20.3749   -3.9462   -8.1427 O   0  0  0  0  0  0  0  0  0  0  0  0
   20.9476   -3.1313   -7.2993 O   0  0  0  0  0  0  0  0  0  0  0  0
   20.4072   -3.1828   -6.1022 O   0  0  0  0  0  0  0  0  0  0  0  0
   20.6479   -2.1389   -5.3808 O   0  0  0  0  0  0  0  0  0  0  0  0
   21.3763   -2.3754   -4.3204 O   0  0  0  0  0  0  0  0  0  0  0  0
   20.7263   -3.0675   -3.3694 N   0  0  0  0  0  0  0  0  0  0  0  0
   19.4103   -3.1586   -3.5711 O   0  0  0  0  0  0  0  0  0  0  0  0
  1  2  1  0
  2  3  1  0
  3  4  1  0
  4  5  1  0
  5  6  1  6
  6  7  1  0
  5  8  1  0
  8  9  1  6
  8 10  1  0
 10 11  1  6
 10 12  1  0
 12 13  1  6
 12 14  1  0
 14 15  1  6
 14 16  1  0
 16 17  1  0
 17 18  1  0
 18 19  1  0
 19 20  1  0
 21 20  1  1
 21 22  1  0
 22 23  1  0
 23 24  1  6
 23 25  1  0
 25 26  1  0
 26 27  1  0
 27 28  1  0
 28 29  1  0
 29 30  1  0
 30 31  1  0
 31 32  1  0
 32 33  1  0
 33 34  1  0
 34 35  1  0
 35 36  1  0
 36 37  1  0
 37 38  1  0
 38 21  1  0
M  RAD  1   3   2
M  END
>  <docking_score>  (1) 
-1.3169999999999999

$$$$

     RDKit          3D

 38 38  0  0  0  0  0  0  0  0999 V2000
    7.2688   14.7425   18.3962 O   0  0  0  0  0  0  0  0  0  0  0  0
    7.2329   14.8494   17.0210 C   0  0  0  0  0  0  0  0  0  0  0  0
    5.8014   14.7815   16.4910 C   0  0  0  0  0  3  0  0  0  0  0  0
    5.7487   13.9788   15.3005 N   0  0  0  0  0  0  0  0  0  0  0  0
    4.4090   14.0132   14.7549 C   0  0  2  0  0  0  0  0  0  0  0  0
    4.1917   15.2325   13.8946 C   0  0  0  0  0  0  0  0  0  0  0  0
    5.2976   16.0559   13.9925 O   0  0  0  0  0  0  0  0  0  0  0  0
    3.4394   14.0601   15.9035 C   0  0  1  0  0  0  0  0  0  0  0  0
    2.4216   14.9930   15.6913 O   0  0  0  0  0  0  0  0  0  0  0  0
    2.8266   12.7212   16.1509 C   0  0  2  0  0  0  0  0  0  0  0  0
    3.3511   12.0404   17.2249 O   0  0  0  0  0  0  0  0  0  0  0  0
    2.7247   11.9149   14.8965 C   0  0  1  0  0  0  0  0  0  0  0  0
    2.9279   12.8592   13.7194 C   0  0  0  0  0  0  0  0  0  0  0  0
    3.7535   10.8363   14.7886 C   0  0  2  0  0  0  0  0  0  0  0  0
    4.6130   10.9451   15.8804 O   0  0  0  0  0  0  0  0  0  0  0  0
    4.5036   10.9402   13.6126 O   0  0  0  0  0  0  0  0  0  0  0  0
    4.0503    9.9883   12.7013 C   0  0  0  0  0  0  0  0  0  0  0  0
    4.8801   10.0155   11.5846 O   0  0  0  0  0  0  0  0  0  0  0  0
    4.1964   10.1559   10.4043 C   0  0  0  0  0  0  0  0  0  0  0  0
    3.4571    9.0343   10.0479 O   0  0  0  0  0  0  0  0  0  0  0  0
    2.4419    9.4198    9.2065 C   0  0  2  0  0  0  0  0  0  0  0  0
    2.3808    8.7148    8.0270 O   0  0  0  0  0  0  0  0  0  0  0  0
    3.6163    8.4721    7.4553 C   0  0  2  0  0  0  0  0  0  0  0  0
    4.5550    9.6480    7.6761 C   0  0  0  0  0  0  0  0  0  0  0  0
    3.4346    8.3434    5.9500 C   0  0  0  0  0  0  0  0  0  0  0  0
    5.0364    8.2056    5.1100 S   0  0  0  0  0  0  0  0  0  0  0  0
    5.5478    9.6823    4.4372 O   0  0  0  0  0  0  0  0  0  0  0  0
    5.4505   10.6859    5.2662 O   0  0  0  0  0  0  0  0  0  0  0  0
    5.1044   11.8600    4.6245 C   0  0  0  0  0  0  0  0  0  0  0  0
    3.8531   11.7685    3.9991 O   0  0  0  0  0  0  0  0  0  0  0  0
    2.9512   12.0473    4.9209 O   0  0  0  0  0  0  0  0  0  0  0  0
    2.8090   13.3380    5.1084 O   0  0  0  0  0  0  0  0  0  0  0  0
    2.9658   13.6902    6.3553 O   0  0  0  0  0  0  0  0  0  0  0  0
    2.7345   12.7025    7.1911 O   0  0  0  0  0  0  0  0  0  0  0  0
    2.4740   13.0935    8.3942 O   0  0  0  0  0  0  0  0  0  0  0  0
    3.3670   12.7354    9.2804 O   0  0  0  0  0  0  0  0  0  0  0  0
    3.3573   11.4181    9.5460 N   0  0  0  0  0  0  0  0  0  0  0  0
    2.2926   10.7763    9.0608 O   0  0  0  0  0  0  0  0  0  0  0  0
  1  2  1  0
  2  3  1  0
  3  4  1  0
  4  5  1  0
  5  6  1  6
  6  7  1  0
  5  8  1  0
  8  9  1  6
  8 10  1  0
 10 11  1  1
 10 12  1  0
 12 13  1  6
 12 14  1  0
 14 15  1  1
 14 16  1  0
 16 17  1  0
 17 18  1  0
 18 19  1  0
 19 20  1  0
 21 20  1  6
 21 22  1  0
 22 23  1  0
 23 24  1  6
 23 25  1  0
 25 26  1  0
 26 27  1  0
 27 28  1  0
 28 29  1  0
 29 30  1  0
 30 31  1  0
 31 32  1  0
 32 33  1  0
 33 34  1  0
 34 35  1  0
 35 36  1  0
 36 37  1  0
 37 38  1  0
 38 21  1  0
M  RAD  1   3   2
M  END
>  <docking_score>  (2) 
-0.34499999999999997

$$$$
