
     RDKit          3D

 20 21  0  0  0  0  0  0  0  0999 V2000
   14.4953   -3.0151   -5.0248 Cl  0  0  0  0  0  0  0  0  0  0  0  0
   15.5335   -4.4199   -5.0101 C   0  0  0  0  0  0  0  0  0  0  0  0
   16.6847   -4.4536   -4.3656 C   0  0  0  0  0  0  0  0  0  0  0  0
   17.5125   -5.6719   -4.3943 C   0  0  0  0  0  0  0  0  0  0  0  0
   18.4495   -5.9280   -3.4997 C   0  0  0  0  0  0  0  0  0  0  0  0
   18.8178   -5.0968   -2.3786 N   0  0  0  0  0  0  0  0  0  0  0  0
   19.9916   -4.3857   -2.3142 N   0  0  0  0  0  0  0  0  0  0  0  0
   20.1562   -3.1637   -2.6030 C   0  0  0  0  0  0  0  0  0  0  0  0
   19.1203   -2.2322   -3.0736 C   0  0  1  0  0  0  0  0  0  0  0  0
   18.8309   -1.1583   -2.1939 N   0  0  0  0  0  0  0  0  0  0  0  0
   19.8735   -0.8300   -1.2637 C   0  0  0  0  0  0  0  0  0  0  0  0
   20.9902   -0.0793   -1.8784 C   0  0  0  0  0  0  0  0  0  0  0  0
   21.0001    0.5413   -3.0375 C   0  0  0  0  0  0  0  0  0  0  0  0
   20.5270   -0.2902   -4.3410 S   0  0  0  0  0  0  0  0  0  0  0  0
   19.3983   -1.7308   -4.4581 C   0  0  2  0  0  0  0  0  0  0  0  0
   17.8990   -1.1251   -5.1855 Cl  0  0  0  0  0  0  0  0  0  0  0  0
   19.0431   -7.2316   -3.8754 C   0  0  0  0  0  0  0  0  0  0  0  0
   18.3110   -7.6560   -5.0899 C   0  0  0  0  0  0  0  0  0  0  0  0
   17.4136   -6.7315   -5.3861 C   0  0  0  0  0  0  0  0  0  0  0  0
   16.3110   -6.8151   -6.7567 Cl  0  0  0  0  0  0  0  0  0  0  0  0
  1  2  1  0
  2  3  2  3
  3  4  1  0
  4  5  2  0
  5  6  1  0
  6  7  1  0
  7  8  2  3
  8  9  1  0
  9 10  1  1
 10 11  1  0
 11 12  1  0
 12 13  2  0
 13 14  2  0
 14 15  1  0
 15 16  1  1
  5 17  1  0
 17 18  1  0
 18 19  2  0
 19 20  1  0
 19  4  1  0
 15  9  1  0
M  END
>  <docking_score>  (1) 
-4.1589999999999998

$$$$

     RDKit          3D

 20 21  0  0  0  0  0  0  0  0999 V2000
    2.3888    8.3935    9.7957 Cl  0  0  0  0  0  0  0  0  0  0  0  0
    2.5125    7.6337    8.2277 C   0  0  0  0  0  0  0  0  0  0  0  0
    3.5675    7.7697    7.4465 C   0  0  0  0  0  0  0  0  0  0  0  0
    3.6070    7.1008    6.1346 C   0  0  0  0  0  0  0  0  0  0  0  0
    3.8752    7.7369    5.0088 C   0  0  0  0  0  0  0  0  0  0  0  0
    4.1661    9.1433    4.8644 N   0  0  0  0  0  0  0  0  0  0  0  0
    5.4319    9.6697    4.9538 N   0  0  0  0  0  0  0  0  0  0  0  0
    5.7763   10.8647    4.7147 C   0  0  0  0  0  0  0  0  0  0  0  0
    4.8910   11.9576    4.2860 C   0  0  1  0  0  0  0  0  0  0  0  0
    5.0759   13.1863    4.9696 N   0  0  0  0  0  0  0  0  0  0  0  0
    6.3626   13.3597    5.5814 C   0  0  0  0  0  0  0  0  0  0  0  0
    7.4306   13.6908    4.6127 C   0  0  0  0  0  0  0  0  0  0  0  0
    7.2911   14.1108    3.3746 C   0  0  0  0  0  0  0  0  0  0  0  0
    6.3363   13.2529    2.3914 S   0  0  0  0  0  0  0  0  0  0  0  0
    4.9218   12.1603    2.8015 C   0  0  2  0  0  0  0  0  0  0  0  0
    3.4632   13.0276    2.2875 Cl  0  0  0  0  0  0  0  0  0  0  0  0
    3.8179    6.7236    3.9304 C   0  0  0  0  0  0  0  0  0  0  0  0
    3.4841    5.4517    4.6102 C   0  0  0  0  0  0  0  0  0  0  0  0
    3.3623    5.6852    5.9058 C   0  0  0  0  0  0  0  0  0  0  0  0
    2.9702    4.4589    7.1073 Cl  0  0  0  0  0  0  0  0  0  0  0  0
  1  2  1  0
  2  3  2  3
  3  4  1  0
  4  5  2  0
  5  6  1  0
  6  7  1  0
  7  8  2  3
  8  9  1  0
  9 10  1  1
 10 11  1  0
 11 12  1  0
 12 13  2  0
 13 14  2  0
 14 15  1  0
 15 16  1  1
  5 17  1  0
 17 18  1  0
 18 19  2  0
 19 20  1  0
 19  4  1  0
 15  9  1  0
M  END
>  <docking_score>  (2) 
-3.8519999999999999

$$$$

     RDKit          3D

 20 21  0  0  0  0  0  0  0  0999 V2000
    3.2096    7.8567    9.4321 Cl  0  0  0  0  0  0  0  0  0  0  0  0
    3.4423    7.5007    7.7378 C   0  0  0  0  0  0  0  0  0  0  0  0
    4.0664    8.3198    6.9125 C   0  0  0  0  0  0  0  0  0  0  0  0
    4.2284    7.9577    5.4937 C   0  0  0  0  0  0  0  0  0  0  0  0
    4.5980    8.8226    4.5666 C   0  0  0  0  0  0  0  0  0  0  0  0
    4.8978   10.2204    4.7656 N   0  0  0  0  0  0  0  0  0  0  0  0
    6.1204   10.6816    5.1899 N   0  0  0  0  0  0  0  0  0  0  0  0
    6.7833   11.6411    4.6964 C   0  0  0  0  0  0  0  0  0  0  0  0
    6.3871   12.4772    3.5535 C   0  0  1  0  0  0  0  0  0  0  0  0
    5.9057   13.7681    3.8895 N   0  0  0  0  0  0  0  0  0  0  0  0
    6.3272   14.2659    5.1680 C   0  0  0  0  0  0  0  0  0  0  0  0
    7.7281   14.7411    5.1773 C   0  0  0  0  0  0  0  0  0  0  0  0
    8.4898   15.0188    4.1422 C   0  0  0  0  0  0  0  0  0  0  0  0
    8.6273   13.8970    2.9859 S   0  0  0  0  0  0  0  0  0  0  0  0
    7.4636   12.5604    2.5144 C   0  0  2  0  0  0  0  0  0  0  0  0
    6.7579   13.0456    0.9619 Cl  0  0  0  0  0  0  0  0  0  0  0  0
    4.6428    8.0747    3.2892 C   0  0  0  0  0  0  0  0  0  0  0  0
    4.2505    6.6901    3.6360 C   0  0  0  0  0  0  0  0  0  0  0  0
    4.0091    6.6328    4.9346 C   0  0  0  0  0  0  0  0  0  0  0  0
    3.5105    5.1781    5.7926 Cl  0  0  0  0  0  0  0  0  0  0  0  0
  1  2  1  0
  2  3  2  3
  3  4  1  0
  4  5  2  0
  5  6  1  0
  6  7  1  0
  7  8  2  3
  8  9  1  0
  9 10  1  1
 10 11  1  0
 11 12  1  0
 12 13  2  0
 13 14  2  0
 14 15  1  0
 15 16  1  6
  5 17  1  0
 17 18  1  0
 18 19  2  0
 19 20  1  0
 19  4  1  0
 15  9  1  0
M  END
>  <docking_score>  (3) 
-3.7629999999999999

$$$$
