
     RDKit          3D

 49 50  0  0  0  0  0  0  0  0999 V2000
   16.9787   -3.2144   -4.1001 C   0  0  0  0  0  0  0  0  0  0  0  0
   15.5833   -3.6742   -3.7833 C   0  0  2  0  0  0  0  0  0  0  0  0
   14.6595   -2.5298   -3.4491 C   0  0  0  0  0  0  0  0  0  0  0  0
   15.6619   -4.6738   -2.6307 C   0  0  0  0  0  0  0  0  0  0  0  0
   16.9552   -5.4611   -2.8178 C   0  0  0  0  0  0  0  0  0  0  0  0
   17.0951   -5.6839   -4.3243 C   0  0  0  0  0  0  0  0  0  0  0  0
   17.3283   -7.1414   -4.5614 C   0  0  1  0  0  0  0  0  0  0  0  0
   17.4792   -7.9313   -3.2837 C   0  0  0  0  0  0  0  0  0  0  0  0
   16.3710   -7.7660   -5.5287 C   0  0  0  0  0  3  0  0  0  0  0  0
   17.1736   -8.2613   -6.7180 C   0  0  0  0  0  0  0  0  0  0  0  0
   18.5730   -8.6579   -6.2990 C   0  0  0  0  0  0  0  0  0  0  0  0
   19.5312   -8.6696   -7.4568 C   0  0  2  0  0  0  0  0  0  0  0  0
   19.6412  -10.1274   -7.9220 C   0  0  0  0  0  0  0  0  0  0  0  0
   20.9110   -8.2222   -7.0823 C   0  0  0  0  0  0  0  0  0  0  0  0
   21.2192   -6.8229   -7.5617 C   0  0  2  0  0  0  0  0  0  0  0  0
   21.3780   -5.9837   -6.3811 N   0  0  0  0  0  0  0  0  0  0  0  0
   20.1172   -6.2485   -8.4042 C   0  0  0  0  0  0  0  0  0  0  0  0
   19.9442   -4.7864   -8.0509 C   0  0  0  0  0  0  0  0  0  0  0  0
   18.5538   -4.3322   -8.4384 C   0  0  1  0  0  0  0  0  0  0  0  0
   17.7591   -5.4727   -8.5610 O   0  0  0  0  0  0  0  0  0  0  0  0
   17.9304   -3.4798   -7.3545 C   0  0  0  0  0  0  0  0  0  0  0  0
   17.1909   -2.2904   -7.9016 C   0  0  0  0  0  0  0  0  0  0  0  0
   15.8203   -2.6436   -8.4209 C   0  0  2  0  0  0  0  0  0  0  0  0
   14.7418   -1.8541   -7.7763 C   0  0  0  0  0  0  0  0  0  0  0  0
   15.5741   -4.0031   -8.3336 O   0  0  0  0  0  0  0  0  0  0  0  0
   14.2432   -4.3122   -8.1133 C   0  0  0  0  0  0  0  0  0  0  0  0
   13.8752   -3.8319   -6.7051 C   0  0  0  0  0  0  0  0  0  0  0  0
   14.1448   -2.3586   -6.7015 C   0  0  0  0  0  0  0  0  0  0  0  0
   13.7638   -1.5076   -5.5549 C   0  0  0  0  0  0  0  0  0  0  0  0
   14.8205   -1.4511   -4.4807 C   0  0  1  0  0  0  0  0  0  0  0  0
   14.9272   -0.0677   -3.8655 C   0  0  0  0  0  0  0  0  0  0  0  0
   16.3228    0.0768   -3.3114 C   0  0  0  0  0  0  0  0  0  0  0  0
   16.8754   -1.3023   -3.0625 C   0  0  0  0  0  0  0  0  0  0  0  0
   18.3434   -1.3597   -2.9645 C   0  0  0  0  0  0  0  0  0  0  0  0
   19.1042   -1.0352   -3.9760 C   0  0  0  0  0  0  0  0  0  0  0  0
   20.5175   -1.1044   -3.8397 N   0  0  0  0  0  1  0  0  0  0  0  0
   18.5158   -0.5982   -5.2563 C   0  0  0  0  0  0  0  0  0  0  0  0
   18.8023    0.8569   -5.5343 C   0  0  0  0  0  0  0  0  0  0  0  0
   19.4186    1.4213   -4.3513 N   0  0  0  0  0  2  0  0  0  0  0  0
   20.4924    2.3420   -4.6715 C   0  0  0  0  0  0  0  0  0  0  0  0
   19.9892    3.3578   -5.6447 C   0  0  0  0  0  0  0  0  0  0  0  0
   19.4693    4.6091   -5.0182 C   0  0  1  0  0  0  0  0  0  0  0  0
   18.7048    4.4185   -3.9064 F   0  0  0  0  0  0  0  0  0  0  0  0
   20.5165    5.6521   -4.8015 C   0  0  1  0  0  0  0  0  0  0  0  0
   21.3763    5.9244   -5.9895 C   0  0  0  0  0  0  0  0  0  0  0  0
   20.0125    6.8810   -4.1217 C   0  0  2  0  0  0  0  0  0  0  0  0
   20.3033    6.7139   -2.6245 C   0  0  0  0  0  0  0  0  0  0  0  0
   18.5017    7.0157   -4.2275 C   0  0  0  0  0  0  0  0  0  0  0  0
   18.0083    7.8485   -3.2480 F   0  0  0  0  0  0  0  0  0  0  0  0
  2  1  1  1
  2  3  1  0
  2  4  1  0
  4  5  1  0
  5  6  1  0
  6  7  1  0
  7  8  1  1
  7  9  1  0
  9 10  1  0
 10 11  1  0
 11 12  1  0
 12 13  1  1
 12 14  1  0
 14 15  1  0
 15 16  1  1
 15 17  1  0
 17 18  1  0
 18 19  1  0
 19 20  1  1
 19 21  1  0
 21 22  1  0
 23 22  1  1
 23 24  1  0
 23 25  1  0
 25 26  1  0
 26 27  1  0
 27 28  1  0
 28 29  1  0
 29 30  1  0
 30 31  1  1
 31 32  1  0
 32 33  1  0
 33 34  1  0
 34 35  2  3
 35 36  1  0
 35 37  1  0
 37 38  1  0
 38 39  1  0
 39 40  1  0
 40 41  1  0
 41 42  1  0
 42 43  1  1
 42 44  1  0
 44 45  1  6
 44 46  1  0
 46 47  1  1
 46 48  1  0
 48 49  1  0
 30  3  1  0
 24 28  2  0
M  CHG  2  36   1  39   1
M  RAD  3   9   2  36   2  39   3
M  END
>  <docking_score>  (1) 
7.0999999999999996

$$$$

     RDKit          3D

 49 50  0  0  0  0  0  0  0  0999 V2000
   18.7159   -3.2324   -2.4445 C   0  0  0  0  0  0  0  0  0  0  0  0
   17.5410   -2.3343   -2.7127 C   0  0  2  0  0  0  0  0  0  0  0  0
   17.8839   -0.8734   -2.5615 C   0  0  0  0  0  0  0  0  0  0  0  0
   16.4098   -2.7357   -1.7677 C   0  0  0  0  0  0  0  0  0  0  0  0
   16.4924   -4.2498   -1.5998 C   0  0  0  0  0  0  0  0  0  0  0  0
   16.8684   -4.8033   -2.9749 C   0  0  0  0  0  0  0  0  0  0  0  0
   15.8947   -5.8818   -3.3267 C   0  0  1  0  0  0  0  0  0  0  0  0
   14.9278   -6.1924   -2.2097 C   0  0  0  0  0  0  0  0  0  0  0  0
   15.2215   -5.6920   -4.6507 C   0  0  0  0  0  3  0  0  0  0  0  0
   15.6121   -6.8593   -5.5389 C   0  0  0  0  0  0  0  0  0  0  0  0
   15.8666   -8.1039   -4.7159 C   0  0  0  0  0  0  0  0  0  0  0  0
   16.7130   -9.1067   -5.4486 C   0  0  2  0  0  0  0  0  0  0  0  0
   15.7502  -10.1359   -6.0546 C   0  0  0  0  0  0  0  0  0  0  0  0
   17.6480   -9.8555   -4.5491 C   0  0  0  0  0  0  0  0  0  0  0  0
   19.0787   -9.3865   -4.6765 C   0  0  2  0  0  0  0  0  0  0  0  0
   19.4520   -8.7786   -3.4059 N   0  0  0  0  0  0  0  0  0  0  0  0
   19.2528   -8.3612   -5.7595 C   0  0  0  0  0  0  0  0  0  0  0  0
   20.2233   -7.3031   -5.2783 C   0  0  0  0  0  0  0  0  0  0  0  0
   20.0092   -6.0257   -6.0606 C   0  0  1  0  0  0  0  0  0  0  0  0
   18.7337   -6.0871   -6.6229 O   0  0  0  0  0  0  0  0  0  0  0  0
   20.0291   -4.8144   -5.1538 C   0  0  0  0  0  0  0  0  0  0  0  0
   20.7842   -3.6562   -5.7449 C   0  0  0  0  0  0  0  0  0  0  0  0
   19.9757   -2.8901   -6.7610 C   0  0  2  0  0  0  0  0  0  0  0  0
   19.8565   -1.4485   -6.4301 C   0  0  0  0  0  0  0  0  0  0  0  0
   18.7343   -3.4666   -6.9681 O   0  0  0  0  0  0  0  0  0  0  0  0
   17.7437   -2.5520   -7.2804 C   0  0  0  0  0  0  0  0  0  0  0  0
   17.4904   -1.6900   -6.0386 C   0  0  0  0  0  0  0  0  0  0  0  0
   18.8056   -1.0469   -5.7226 C   0  0  0  0  0  0  0  0  0  0  0  0
   18.9266   -0.0142   -4.6724 C   0  0  0  0  0  0  0  0  0  0  0  0
   19.1606   -0.5896   -3.2984 C   0  0  1  0  0  0  0  0  0  0  0  0
   20.1252    0.2571   -2.4882 C   0  0  0  0  0  0  0  0  0  0  0  0
   20.3469    1.5432   -3.2448 C   0  0  0  0  0  0  0  0  0  0  0  0
   21.3173    2.3885   -2.4618 C   0  0  0  0  0  0  0  0  0  0  0  0
   20.6898    3.4667   -1.6799 C   0  0  0  0  0  0  0  0  0  0  0  0
   20.7168    4.7069   -2.0905 C   0  0  0  0  0  0  0  0  0  0  0  0
   20.0987    5.7180   -1.3054 N   0  0  0  0  0  1  0  0  0  0  0  0
   21.3797    5.0706   -3.3572 C   0  0  0  0  0  0  0  0  0  0  0  0
   20.7407    6.2798   -3.9943 C   0  0  0  0  0  0  0  0  0  0  0  0
   21.1233    6.2992   -5.3911 N   0  0  0  0  0  2  0  0  0  0  0  0
   20.7280    7.5254   -6.0570 C   0  0  0  0  0  0  0  0  0  0  0  0
   19.5894    7.2336   -6.9794 C   0  0  0  0  0  0  0  0  0  0  0  0
   18.4333    6.5435   -6.3346 C   0  0  1  0  0  0  0  0  0  0  0  0
   17.4788    6.0961   -7.1980 F   0  0  0  0  0  0  0  0  0  0  0  0
   18.8336    5.4908   -5.3532 C   0  0  1  0  0  0  0  0  0  0  0  0
   18.1136    5.5529   -4.0483 C   0  0  0  0  0  0  0  0  0  0  0  0
   18.9148    4.1204   -5.9378 C   0  0  2  0  0  0  0  0  0  0  0  0
   20.2958    3.9967   -6.5948 C   0  0  0  0  0  0  0  0  0  0  0  0
   17.9122    3.9171   -7.0627 C   0  0  0  0  0  0  0  0  0  0  0  0
   17.8450    5.0280   -7.8738 F   0  0  0  0  0  0  0  0  0  0  0  0
  2  1  1  1
  2  3  1  0
  2  4  1  0
  4  5  1  0
  5  6  1  0
  6  7  1  0
  7  8  1  1
  7  9  1  0
  9 10  1  0
 10 11  1  0
 11 12  1  0
 12 13  1  1
 12 14  1  0
 14 15  1  0
 15 16  1  1
 15 17  1  0
 17 18  1  0
 18 19  1  0
 19 20  1  1
 19 21  1  0
 21 22  1  0
 23 22  1  1
 23 24  1  0
 23 25  1  0
 25 26  1  0
 26 27  1  0
 27 28  1  0
 28 29  1  0
 29 30  1  0
 30 31  1  1
 31 32  1  0
 32 33  1  0
 33 34  1  0
 34 35  2  3
 35 36  1  0
 35 37  1  0
 37 38  1  0
 38 39  1  0
 39 40  1  0
 40 41  1  0
 41 42  1  0
 42 43  1  6
 42 44  1  0
 44 45  1  1
 44 46  1  0
 46 47  1  6
 46 48  1  0
 48 49  1  0
 30  3  1  0
 24 28  2  0
M  CHG  2  36   1  39   1
M  RAD  3   9   2  36   2  39   3
M  END
>  <docking_score>  (2) 
7.8319999999999999

$$$$
