
     RDKit          3D

 11 11  0  0  0  0  0  0  0  0999 V2000
   14.6542    0.2841   -5.5335 O   0  0  0  0  0  0  0  0  0  0  0  0
   15.2511   -0.9670   -5.6650 C   0  0  0  0  0  0  0  0  0  0  0  0
   14.9244   -1.8382   -4.4963 C   0  0  1  0  0  0  0  0  0  0  0  0
   14.5041   -3.1269   -4.9885 N   0  0  0  0  0  0  0  0  0  0  0  0
   15.7075   -3.8331   -5.4405 C   0  0  0  0  0  0  0  0  0  0  0  0
   16.5002   -4.2910   -4.2136 C   0  0  2  0  0  0  0  0  0  0  0  0
   16.3349   -5.6472   -3.9788 O   0  0  0  0  0  0  0  0  0  0  0  0
   16.0901   -3.4238   -3.0727 C   0  0  1  0  0  0  0  0  0  0  0  0
   16.7879   -3.6140   -1.9126 O   0  0  0  0  0  0  0  0  0  0  0  0
   16.1333   -1.9764   -3.5636 C   0  0  1  0  0  0  0  0  0  0  0  0
   17.2734   -1.8971   -4.3867 O   0  0  0  0  0  0  0  0  0  0  0  0
  1  2  1  0
  3  2  1  6
  3  4  1  0
  4  5  1  0
  5  6  1  0
  6  7  1  1
  6  8  1  0
  8  9  1  1
  8 10  1  0
 10 11  1  6
 10  3  1  0
M  END
>  <docking_score>  (1) 
-3.4940000000000002

$$$$

     RDKit          3D

 11 11  0  0  0  0  0  0  0  0999 V2000
   14.6388   -5.3760   -7.1803 O   0  0  0  0  0  0  0  0  0  0  0  0
   14.9876   -4.0614   -6.8820 C   0  0  0  0  0  0  0  0  0  0  0  0
   14.6315   -3.7232   -5.4712 C   0  0  1  0  0  0  0  0  0  0  0  0
   15.6557   -4.2476   -4.6017 N   0  0  0  0  0  0  0  0  0  0  0  0
   16.8264   -3.3737   -4.7327 C   0  0  0  0  0  0  0  0  0  0  0  0
   16.5429   -2.0577   -4.0042 C   0  0  2  0  0  0  0  0  0  0  0  0
   17.1957   -2.0021   -2.7825 O   0  0  0  0  0  0  0  0  0  0  0  0
   15.0623   -1.9152   -3.9074 C   0  0  1  0  0  0  0  0  0  0  0  0
   14.6210   -0.7311   -3.3856 O   0  0  0  0  0  0  0  0  0  0  0  0
   14.4861   -2.2074   -5.2931 C   0  0  1  0  0  0  0  0  0  0  0  0
   15.3869   -1.6187   -6.2018 O   0  0  0  0  0  0  0  0  0  0  0  0
  1  2  1  0
  3  2  1  6
  3  4  1  0
  4  5  1  0
  5  6  1  0
  6  7  1  1
  6  8  1  0
  8  9  1  6
  8 10  1  0
 10 11  1  6
 10  3  1  0
M  END
>  <docking_score>  (2) 
-3.218

$$$$

     RDKit          3D

 11 11  0  0  0  0  0  0  0  0999 V2000
   14.9797   -3.4495   -7.6450 O   0  0  0  0  0  0  0  0  0  0  0  0
   15.7965   -2.7312   -6.7757 C   0  0  0  0  0  0  0  0  0  0  0  0
   15.1494   -2.5833   -5.4374 C   0  0  1  0  0  0  0  0  0  0  0  0
   14.9481   -3.8971   -4.8779 N   0  0  0  0  0  0  0  0  0  0  0  0
   16.2555   -4.3801   -4.4212 C   0  0  0  0  0  0  0  0  0  0  0  0
   16.6386   -3.6303   -3.1428 C   0  0  2  0  0  0  0  0  0  0  0  0
   16.4538   -4.4177   -2.0169 O   0  0  0  0  0  0  0  0  0  0  0  0
   15.8629   -2.3577   -3.1266 C   0  0  1  0  0  0  0  0  0  0  0  0
   16.1679   -1.4991   -2.1073 O   0  0  0  0  0  0  0  0  0  0  0  0
   16.0091   -1.7187   -4.5079 C   0  0  1  0  0  0  0  0  0  0  0  0
   17.3463   -1.9499   -4.8846 O   0  0  0  0  0  0  0  0  0  0  0  0
  1  2  1  0
  3  2  1  6
  3  4  1  0
  4  5  1  0
  5  6  1  0
  6  7  1  1
  6  8  1  0
  8  9  1  1
  8 10  1  0
 10 11  1  6
 10  3  1  0
M  END
>  <docking_score>  (3) 
-3.1880000000000002

$$$$
