
     RDKit          3D

 24 25  0  0  0  0  0  0  0  0999 V2000
    7.0815   10.8207    4.0046 C   0  0  0  0  0  0  0  0  0  0  0  0
    6.2406   11.1257    2.7723 C   0  0  1  0  0  0  0  0  0  0  0  0
    5.7254    9.8311    2.2338 C   0  0  0  0  0  0  0  0  0  0  0  0
    4.7360    9.2495    3.2377 C   0  0  2  0  0  0  0  0  0  0  0  0
    4.4075    7.9614    2.8258 O   0  0  0  0  0  0  0  0  0  0  0  0
    3.5354   10.1885    3.1732 C   0  0  2  0  0  0  0  0  0  0  0  0
    3.3237   10.4191    1.8033 O   0  0  0  0  0  0  0  0  0  0  0  0
    3.9749   11.4790    3.8110 C   0  0  1  0  0  0  0  0  0  0  0  0
    4.2316   11.2016    5.1630 O   0  0  0  0  0  0  0  0  0  0  0  0
    5.1563   12.1149    3.1344 C   0  0  1  0  0  0  0  0  0  0  0  0
    5.7696   13.0053    4.1017 N   0  0  0  0  0  0  0  0  0  0  0  0
    5.9567   14.3482    3.6145 C   0  0  1  0  0  0  0  0  0  0  0  0
    5.6218   15.2291    4.8209 C   0  0  1  0  0  0  0  0  0  0  0  0
    4.2665   14.7761    5.3457 C   0  0  0  0  0  0  0  0  0  0  0  0
    3.6579   15.8754    6.2085 C   0  0  0  0  0  3  0  0  0  0  0  0
    3.3400   15.2360    7.5443 C   0  0  0  0  0  0  0  0  0  0  0  0
    4.4338   15.4867    8.3749 O   0  0  0  0  0  0  0  0  0  0  0  0
    6.7399   14.7730    5.7587 C   0  0  1  0  0  0  0  0  0  0  0  0
    6.3441   13.5103    6.2325 O   0  0  0  0  0  0  0  0  0  0  0  0
    7.9350   14.4952    4.8546 C   0  0  2  0  0  0  0  0  0  0  0  0
    9.0210   15.2896    5.1830 O   0  0  0  0  0  0  0  0  0  0  0  0
    7.4191   14.7231    3.4676 C   0  0  1  0  0  0  0  0  0  0  0  0
    8.0769   14.0284    2.4845 O   0  0  0  0  0  0  0  0  0  0  0  0
    9.3660   14.3130    2.6142 O   0  0  0  0  0  0  0  0  0  0  0  0
  2  1  1  1
  2  3  1  0
  3  4  1  0
  4  5  1  6
  4  6  1  0
  6  7  1  6
  6  8  1  0
  8  9  1  1
  8 10  1  0
 10 11  1  1
 12 11  1  1
 12 13  1  0
 13 14  1  1
 14 15  1  0
 15 16  1  0
 16 17  1  0
 13 18  1  0
 18 19  1  6
 18 20  1  0
 20 21  1  1
 20 22  1  0
 22 23  1  6
 23 24  1  0
 10  2  1  0
 22 12  1  0
M  RAD  1  15   2
M  END
>  <docking_score>  (1) 
-3.8119999999999998

$$$$

     RDKit          3D

 24 25  0  0  0  0  0  0  0  0999 V2000
   20.1262   -3.8994   -6.0579 C   0  0  0  0  0  0  0  0  0  0  0  0
   19.6098   -3.8536   -4.6261 C   0  0  1  0  0  0  0  0  0  0  0  0
   19.9089   -2.4993   -4.0714 C   0  0  0  0  0  0  0  0  0  0  0  0
   19.0618   -1.4737   -4.8167 C   0  0  2  0  0  0  0  0  0  0  0  0
   19.4818   -0.2036   -4.4328 O   0  0  0  0  0  0  0  0  0  0  0  0
   17.6340   -1.7598   -4.3618 C   0  0  2  0  0  0  0  0  0  0  0  0
   17.7223   -1.9441   -2.9716 O   0  0  0  0  0  0  0  0  0  0  0  0
   17.2456   -3.0703   -4.9921 C   0  0  1  0  0  0  0  0  0  0  0  0
   17.2216   -2.8663   -6.3808 O   0  0  0  0  0  0  0  0  0  0  0  0
   18.1417   -4.2137   -4.6083 C   0  0  1  0  0  0  0  0  0  0  0  0
   17.9931   -5.2305   -5.6323 N   0  0  0  0  0  0  0  0  0  0  0  0
   17.6096   -6.5197   -5.1161 C   0  0  1  0  0  0  0  0  0  0  0  0
   16.6795   -7.0868   -6.1917 C   0  0  1  0  0  0  0  0  0  0  0  0
   15.6292   -6.0242   -6.4833 C   0  0  0  0  0  0  0  0  0  0  0  0
   14.5374   -6.0782   -5.4210 C   0  0  0  0  0  3  0  0  0  0  0  0
   13.4429   -5.1435   -5.8929 C   0  0  0  0  0  0  0  0  0  0  0  0
   13.2994   -5.3605   -7.2646 O   0  0  0  0  0  0  0  0  0  0  0  0
   17.6833   -7.1785   -7.3414 C   0  0  1  0  0  0  0  0  0  0  0  0
   17.8517   -5.8613   -7.8020 O   0  0  0  0  0  0  0  0  0  0  0  0
   19.0122   -7.5377   -6.6874 C   0  0  2  0  0  0  0  0  0  0  0  0
   19.5102   -8.7384   -7.1658 O   0  0  0  0  0  0  0  0  0  0  0  0
   18.7187   -7.5492   -5.2193 C   0  0  1  0  0  0  0  0  0  0  0  0
   19.7970   -7.2901   -4.4119 O   0  0  0  0  0  0  0  0  0  0  0  0
   19.9149   -8.3246   -3.5899 O   0  0  0  0  0  0  0  0  0  0  0  0
  2  1  1  6
  2  3  1  0
  3  4  1  0
  4  5  1  1
  4  6  1  0
  6  7  1  1
  6  8  1  0
  8  9  1  6
  8 10  1  0
 10 11  1  6
 12 11  1  6
 12 13  1  0
 13 14  1  6
 14 15  1  0
 15 16  1  0
 16 17  1  0
 13 18  1  0
 18 19  1  1
 18 20  1  0
 20 21  1  6
 20 22  1  0
 22 23  1  1
 23 24  1  0
 10  2  1  0
 22 12  1  0
M  RAD  1  15   2
M  END
>  <docking_score>  (2) 
-3.6899999999999999

$$$$

     RDKit          3D

 24 25  0  0  0  0  0  0  0  0999 V2000
   17.7733   -7.3849   -4.8910 C   0  0  0  0  0  0  0  0  0  0  0  0
   18.8789   -6.7039   -5.6864 C   0  0  1  0  0  0  0  0  0  0  0  0
   19.3428   -7.6564   -6.7394 C   0  0  0  0  0  0  0  0  0  0  0  0
   18.2135   -7.8529   -7.7449 C   0  0  2  0  0  0  0  0  0  0  0  0
   18.5777   -8.8804   -8.6101 O   0  0  0  0  0  0  0  0  0  0  0  0
   18.1126   -6.5130   -8.4673 C   0  0  2  0  0  0  0  0  0  0  0  0
   19.4405   -6.1419   -8.7384 O   0  0  0  0  0  0  0  0  0  0  0  0
   17.5399   -5.5398   -7.4722 C   0  0  1  0  0  0  0  0  0  0  0  0
   16.2359   -5.9706   -7.1811 O   0  0  0  0  0  0  0  0  0  0  0  0
   18.3711   -5.3877   -6.2298 C   0  0  1  0  0  0  0  0  0  0  0  0
   17.4962   -4.8683   -5.1958 N   0  0  0  0  0  0  0  0  0  0  0  0
   17.7336   -3.4830   -4.8791 C   0  0  1  0  0  0  0  0  0  0  0  0
   16.4156   -3.0149   -4.2568 C   0  0  1  0  0  0  0  0  0  0  0  0
   15.3006   -3.4117   -5.2142 C   0  0  0  0  0  0  0  0  0  0  0  0
   14.1760   -2.3853   -5.1443 C   0  0  0  0  0  3  0  0  0  0  0  0
   14.8103   -1.0431   -5.4452 C   0  0  0  0  0  0  0  0  0  0  0  0
   14.2319   -0.1247   -4.5670 O   0  0  0  0  0  0  0  0  0  0  0  0
   16.4088   -3.9169   -3.0222 C   0  0  1  0  0  0  0  0  0  0  0  0
   16.0456   -5.1923   -3.4880 O   0  0  0  0  0  0  0  0  0  0  0  0
   17.8710   -4.0508   -2.6138 C   0  0  2  0  0  0  0  0  0  0  0  0
   18.0889   -3.5805   -1.3293 O   0  0  0  0  0  0  0  0  0  0  0  0
   18.6264   -3.3006   -3.6665 C   0  0  1  0  0  0  0  0  0  0  0  0
   19.9193   -3.7172   -3.8582 O   0  0  0  0  0  0  0  0  0  0  0  0
   20.6881   -2.6434   -3.7333 O   0  0  0  0  0  0  0  0  0  0  0  0
  2  1  1  6
  2  3  1  0
  3  4  1  0
  4  5  1  6
  4  6  1  0
  6  7  1  1
  6  8  1  0
  8  9  1  1
  8 10  1  0
 10 11  1  1
 12 11  1  1
 12 13  1  0
 13 14  1  6
 14 15  1  0
 15 16  1  0
 16 17  1  0
 13 18  1  0
 18 19  1  6
 18 20  1  0
 20 21  1  1
 20 22  1  0
 22 23  1  6
 23 24  1  0
 10  2  1  0
 22 12  1  0
M  RAD  1  15   2
M  END
>  <docking_score>  (3) 
-3.669

$$$$
