
     RDKit          3D

 49 53  0  0  0  0  0  0  0  0999 V2000
    2.6397    4.7278    4.9741 C   0  0  0  0  0  0  0  0  0  0  0  0
    2.2714    5.8652    4.2488 O   0  0  0  0  0  0  0  0  0  0  0  0
    2.5738    7.1558    4.5805 C   0  0  0  0  0  0  0  0  0  0  0  0
    3.3902    7.9379    3.9224 C   0  0  0  0  0  0  0  0  0  0  0  0
    3.6948    9.2978    4.2910 C   0  0  0  0  0  0  0  0  0  0  0  0
    3.3625    9.7646    5.5656 C   0  0  0  0  0  0  0  0  0  0  0  0
    2.7335    8.8834    6.4618 N   0  0  0  0  0  0  0  0  0  0  0  0
    3.0242    8.7682    7.8441 C   0  0  0  0  0  0  0  0  0  0  0  0
    3.3343    9.8564    8.6168 C   0  0  0  0  0  0  0  0  0  0  0  0
    3.6122    9.6989    9.9540 C   0  0  0  0  0  0  0  0  0  0  0  0
    3.5865    8.4463   10.5516 C   0  0  0  0  0  0  0  0  0  0  0  0
    3.9710    8.2190   12.4073 Br  0  0  0  0  0  0  0  0  0  0  0  0
    3.2730    7.3450    9.7708 C   0  0  0  0  0  0  0  0  0  0  0  0
    2.9966    7.5146    8.4331 C   0  0  0  0  0  0  0  0  0  0  0  0
    2.6890    6.4255    7.6722 F   0  0  0  0  0  0  0  0  0  0  0  0
    3.6525   11.0366    5.8969 N   0  0  0  0  0  0  0  0  0  0  0  0
    4.2553   11.8916    5.0488 C   0  0  0  0  0  0  0  0  0  0  0  0
    4.5661   11.4203    3.8278 N   0  0  0  0  0  0  0  0  0  0  0  0
    4.3063   10.1852    3.4482 C   0  0  0  0  0  0  0  0  0  0  0  0
    4.6779    9.7532    2.0961 C   0  0  0  0  0  0  0  0  0  0  0  0
    5.1750   10.5736    1.1993 C   0  0  0  0  0  0  0  0  0  0  0  0
    5.4199   11.9075    1.3639 O   0  0  0  0  0  0  0  0  0  0  0  0
    6.4892   12.4627    2.0657 C   0  0  0  0  0  0  0  0  0  0  0  0
    7.1356   13.6189    1.3351 C   0  0  0  0  0  0  0  0  0  0  0  0
    8.5005   13.9407    1.9011 C   0  0  0  0  0  0  0  0  0  0  0  0
    8.7064   13.0545    3.1046 C   0  0  0  0  0  0  0  0  0  0  0  0
    8.0487   13.5412    4.2886 N   0  0  0  0  0  0  0  0  0  0  0  0
    6.9546   13.0390    5.0177 C   0  0  0  0  0  0  0  0  0  0  0  0
    6.7144   11.9117    5.5580 C   0  0  0  0  0  0  0  0  0  0  0  0
    7.2607   10.6846    5.7472 N   0  0  0  0  0  0  0  0  0  0  0  0
    6.8946    9.3627    4.6256 S   0  0  0  0  0  0  0  0  0  0  0  0
    6.8006    7.8840    5.5871 N   0  0  0  0  0  0  0  0  0  0  0  0
    6.2917    6.8490    5.0457 C   0  0  0  0  0  0  0  0  0  0  0  0
    6.1352    5.5608    5.6788 C   0  0  0  0  0  0  0  0  0  0  0  0
    7.2371    4.9604    6.1317 C   0  0  0  0  0  0  0  0  0  0  0  0
    8.7789   14.8001    4.5755 C   0  0  2  0  0  0  0  0  0  0  0  0
    9.8102   15.0802    5.3405 N   0  0  0  0  0  0  0  0  0  0  0  0
    8.4596   15.3698    5.7893 C   0  0  0  0  0  0  0  0  0  0  0  0
    7.2395   15.6778    6.2973 O   0  0  0  0  0  0  0  0  0  0  0  0
    6.1088   14.7854    6.4866 C   0  0  1  0  0  0  0  0  0  0  0  0
    5.7688   13.9984    5.2724 C   0  0  1  0  0  0  0  0  0  0  0  0
    5.5697   14.8576    4.1291 N   0  0  0  0  0  0  0  0  0  0  0  0
    4.5199   13.2345    5.5058 C   0  0  0  0  0  0  0  0  0  0  0  0
    3.5899   13.8825    6.1994 C   0  0  0  0  0  0  0  0  0  0  0  0
    2.2580   13.2909    6.5413 C   0  0  0  0  0  0  0  0  0  0  0  0
    3.7804   15.2242    6.6892 N   0  0  0  0  0  0  0  0  0  0  0  0
    6.4911   13.9074    7.5743 N   0  0  0  0  0  0  0  0  0  0  0  0
    6.8988   14.4078    8.8173 N   0  0  0  0  0  0  0  0  0  0  0  0
    6.5975   15.6036    9.1360 C   0  0  0  0  0  0  0  0  0  0  0  0
  1  2  1  0
  2  3  1  0
  3  4  2  3
  4  5  1  0
  5  6  2  0
  6  7  1  0
  7  8  1  0
  8  9  2  0
  9 10  1  0
 10 11  2  0
 11 12  1  0
 11 13  1  0
 13 14  2  0
 14 15  1  0
  6 16  1  0
 16 17  2  0
 17 18  1  0
 18 19  2  0
 19 20  1  0
 20 21  2  3
 21 22  1  0
 22 23  1  0
 23 24  1  0
 24 25  1  0
 25 26  1  0
 26 27  1  0
 27 28  1  0
 28 29  2  3
 29 30  1  0
 30 31  1  0
 31 32  1  0
 32 33  2  3
 33 34  1  0
 34 35  2  0
 36 27  1  1
 36 37  1  0
 37 38  2  0
 38 39  1  0
 39 40  1  0
 40 41  1  0
 41 42  1  6
 41 43  1  0
 43 44  2  3
 44 45  1  0
 44 46  1  0
 40 47  1  1
 47 48  1  0
 48 49  2  0
 19  5  1  0
 14  8  1  0
 43 17  1  0
 41 28  1  0
 38 36  1  0
M  END
>  <docking_score>  (1) 
2.6120000000000001

$$$$
