
     RDKit          3D

 25 28  0  0  0  0  0  0  0  0999 V2000
   15.2301   -2.6368   -4.1109 C   0  0  0  0  0  0  0  0  0  0  0  0
   15.7661   -1.9112   -5.2389 O   0  0  0  0  0  0  0  0  0  0  0  0
   16.1518   -2.6630   -6.3712 C   0  0  0  0  0  0  0  0  0  0  0  0
   16.4622   -2.1346   -7.5922 C   0  0  0  0  0  0  0  0  0  0  0  0
   16.8352   -2.9193   -8.6715 C   0  0  0  0  0  0  0  0  0  0  0  0
   16.8893   -4.3085   -8.4798 C   0  0  0  0  0  0  0  0  0  0  0  0
   16.5853   -4.8580   -7.2745 C   0  0  0  0  0  0  0  0  0  0  0  0
   16.2278   -4.0290   -6.2618 C   0  0  0  0  0  0  0  0  0  0  0  0
   16.6216   -6.3009   -6.9830 C   0  0  0  0  0  0  0  0  0  0  0  0
   16.9813   -6.4198   -5.5108 C   0  0  2  0  0  0  0  0  0  0  0  0
   15.8334   -6.6284   -4.6855 N   0  0  0  0  0  0  0  0  0  0  0  0
   15.3390   -5.4282   -4.0890 C   0  0  0  0  0  0  0  0  0  0  0  0
   16.3681   -4.6394   -3.4375 C   0  0  0  0  0  0  0  0  0  0  0  0
   16.4018   -3.3142   -3.3945 C   0  0  0  0  0  0  0  0  0  0  0  0
   17.3556   -2.5110   -2.7613 C   0  0  0  0  0  0  0  0  0  0  0  0
   18.5297   -2.5042   -2.2831 C   0  0  0  0  0  0  0  0  0  0  0  0
   19.1082   -1.2669   -1.6665 C   0  0  0  0  0  0  0  0  0  0  0  0
   20.2716   -1.1971   -1.1018 C   0  0  0  0  0  0  0  0  0  0  0  0
   21.1362   -2.3595   -1.0317 C   0  0  0  0  0  0  0  0  0  0  0  0
   20.6897   -3.4632   -1.5729 C   0  0  0  0  0  0  0  0  0  0  0  0
   19.4175   -3.6824   -2.2568 C   0  0  2  0  0  0  0  0  0  0  0  0
   19.8245   -3.9970   -3.7237 C   0  0  0  0  0  0  0  0  0  0  0  0
   19.0530   -5.5891   -4.0786 S   0  0  0  0  0  0  0  0  0  0  0  0
   20.2305   -6.7171   -4.8446 C   0  0  0  0  0  0  0  0  0  0  0  0
   17.8081   -5.2877   -5.0584 C   0  0  0  0  0  0  0  0  0  0  0  0
  1  2  1  0
  2  3  1  0
  3  4  2  0
  4  5  1  0
  5  6  2  0
  6  7  1  0
  7  8  2  0
  7  9  1  0
 10  9  1  6
 10 11  1  0
 11 12  1  0
 12 13  1  0
 13 14  2  3
 14 15  1  0
 15 16  2  3
 16 17  1  0
 17 18  2  0
 18 19  1  0
 19 20  2  0
 20 21  1  0
 21 22  1  6
 22 23  1  0
 23 24  1  6
 23 25  2  3
 14  1  1  0
  8  3  1  0
 25 10  1  0
 21 16  1  0
M  END
>  <docking_score>  (1) 
-6.7329999999999997

$$$$

     RDKit          3D

 25 28  0  0  0  0  0  0  0  0999 V2000
   19.8809   -0.6049   -5.7442 C   0  0  0  0  0  0  0  0  0  0  0  0
   19.9424    0.2002   -4.5466 O   0  0  0  0  0  0  0  0  0  0  0  0
   20.3257   -0.4444   -3.3493 C   0  0  0  0  0  0  0  0  0  0  0  0
   20.6510    0.1947   -2.1865 C   0  0  0  0  0  0  0  0  0  0  0  0
   21.0209   -0.4876   -1.0388 C   0  0  0  0  0  0  0  0  0  0  0  0
   21.0558   -1.8894   -1.0961 C   0  0  0  0  0  0  0  0  0  0  0  0
   20.7363   -2.5480   -2.2412 C   0  0  0  0  0  0  0  0  0  0  0  0
   20.3833   -1.8155   -3.3272 C   0  0  0  0  0  0  0  0  0  0  0  0
   20.7396   -4.0131   -2.3890 C   0  0  0  0  0  0  0  0  0  0  0  0
   19.6669   -4.3307   -3.4183 C   0  0  2  0  0  0  0  0  0  0  0  0
   20.2101   -4.5390   -4.7236 N   0  0  0  0  0  0  0  0  0  0  0  0
   20.1454   -3.3795   -5.5556 C   0  0  0  0  0  0  0  0  0  0  0  0
   18.8343   -2.7582   -5.5812 C   0  0  0  0  0  0  0  0  0  0  0  0
   18.6089   -1.4541   -5.6689 C   0  0  0  0  0  0  0  0  0  0  0  0
   17.3686   -0.8102   -5.7210 C   0  0  0  0  0  0  0  0  0  0  0  0
   16.1321   -0.9548   -5.4812 C   0  0  0  0  0  0  0  0  0  0  0  0
   15.1566    0.1514   -5.7471 C   0  0  0  0  0  0  0  0  0  0  0  0
   13.8745    0.0601   -5.5889 C   0  0  0  0  0  0  0  0  0  0  0  0
   13.2684   -1.1693   -5.1146 C   0  0  0  0  0  0  0  0  0  0  0  0
   14.0758   -2.1627   -4.8469 C   0  0  0  0  0  0  0  0  0  0  0  0
   15.5322   -2.1967   -4.9569 C   0  0  2  0  0  0  0  0  0  0  0  0
   16.0194   -2.3715   -3.4911 C   0  0  0  0  0  0  0  0  0  0  0  0
   17.0624   -3.8434   -3.5307 S   0  0  0  0  0  0  0  0  0  0  0  0
   16.6385   -4.9675   -2.1882 C   0  0  0  0  0  0  0  0  0  0  0  0
   18.5861   -3.3299   -3.4057 C   0  0  0  0  0  0  0  0  0  0  0  0
  1  2  1  0
  2  3  1  0
  3  4  2  0
  4  5  1  0
  5  6  2  0
  6  7  1  0
  7  8  2  0
  7  9  1  0
 10  9  1  1
 10 11  1  0
 11 12  1  0
 12 13  1  0
 13 14  2  3
 14 15  1  0
 15 16  2  3
 16 17  1  0
 17 18  2  0
 18 19  1  0
 19 20  2  0
 20 21  1  0
 21 22  1  1
 22 23  1  0
 23 24  1  1
 23 25  2  3
 14  1  1  0
  8  3  1  0
 25 10  1  0
 21 16  1  0
M  END
>  <docking_score>  (2) 
-6.2130000000000001

$$$$

     RDKit          3D

 25 28  0  0  0  0  0  0  0  0999 V2000
   16.2827   -2.4814   -2.9085 C   0  0  0  0  0  0  0  0  0  0  0  0
   15.3853   -2.3569   -4.0334 O   0  0  0  0  0  0  0  0  0  0  0  0
   15.1013   -3.5281   -4.7707 C   0  0  0  0  0  0  0  0  0  0  0  0
   14.1161   -3.6411   -5.7104 C   0  0  0  0  0  0  0  0  0  0  0  0
   13.8799   -4.8160   -6.4058 C   0  0  0  0  0  0  0  0  0  0  0  0
   14.6968   -5.9200   -6.1172 C   0  0  0  0  0  0  0  0  0  0  0  0
   15.6836   -5.8324   -5.1867 C   0  0  0  0  0  0  0  0  0  0  0  0
   15.8581   -4.6505   -4.5440 C   0  0  0  0  0  0  0  0  0  0  0  0
   16.5898   -6.9356   -4.8260 C   0  0  0  0  0  0  0  0  0  0  0  0
   17.9001   -6.2820   -4.4173 C   0  0  2  0  0  0  0  0  0  0  0  0
   18.0302   -6.1645   -2.9991 N   0  0  0  0  0  0  0  0  0  0  0  0
   17.6588   -4.8781   -2.5009 C   0  0  0  0  0  0  0  0  0  0  0  0
   18.2774   -3.7790   -3.2186 C   0  0  0  0  0  0  0  0  0  0  0  0
   17.7055   -2.6070   -3.4605 C   0  0  0  0  0  0  0  0  0  0  0  0
   18.2665   -1.5114   -4.1244 C   0  0  0  0  0  0  0  0  0  0  0  0
   19.1964   -1.1612   -4.9118 C   0  0  0  0  0  0  0  0  0  0  0  0
   19.3556    0.2672   -5.3361 C   0  0  0  0  0  0  0  0  0  0  0  0
   20.3139    0.7135   -6.0844 C   0  0  0  0  0  0  0  0  0  0  0  0
   21.3388   -0.1783   -6.5925 C   0  0  0  0  0  0  0  0  0  0  0  0
   21.2378   -1.4416   -6.2697 C   0  0  0  0  0  0  0  0  0  0  0  0
   20.2082   -2.0860   -5.4579 C   0  0  2  0  0  0  0  0  0  0  0  0
   19.4857   -3.0408   -6.4491 C   0  0  0  0  0  0  0  0  0  0  0  0
   19.5878   -4.6660   -5.6717 S   0  0  0  0  0  0  0  0  0  0  0  0
   20.1411   -5.9093   -6.8523 C   0  0  0  0  0  0  0  0  0  0  0  0
   18.1119   -5.0023   -5.1153 C   0  0  0  0  0  0  0  0  0  0  0  0
  1  2  1  0
  2  3  1  0
  3  4  2  0
  4  5  1  0
  5  6  2  0
  6  7  1  0
  7  8  2  0
  7  9  1  0
 10  9  1  1
 10 11  1  0
 11 12  1  0
 12 13  1  0
 13 14  2  3
 14 15  1  0
 15 16  2  3
 16 17  1  0
 17 18  2  0
 18 19  1  0
 19 20  2  0
 20 21  1  0
 21 22  1  6
 22 23  1  0
 23 24  1  6
 23 25  2  3
 14  1  1  0
  8  3  1  0
 25 10  1  0
 21 16  1  0
M  END
>  <docking_score>  (3) 
-6.0279999999999996

$$$$
