
     RDKit          3D

 61 60  0  0  0  0  0  0  0  0999 V2000
   19.6044   -5.3679   -4.9620 O   0  0  0  0  0  0  0  0  0  0  0  0
   18.5722   -4.2806   -5.0108 C   0  0  0  0  0  0  0  0  0  0  0  0
   17.3343   -4.3834   -4.1701 C   0  0  0  0  0  3  0  0  0  0  0  0
   16.2022   -5.2653   -4.6068 N   0  0  0  0  0  0  0  0  0  0  0  0
   15.7299   -5.2299   -6.0301 C   0  0  0  0  0  0  0  0  0  0  0  0
   16.6527   -4.7593   -7.1150 C   0  0  0  0  0  0  0  0  0  0  0  0
   17.2291   -5.7439   -8.0888 O   0  0  0  0  0  0  0  0  0  0  0  0
   14.3350   -5.6653   -6.3684 C   0  0  0  0  0  0  0  0  0  0  0  0
   14.0043   -7.1261   -6.4506 O   0  0  0  0  0  0  0  0  0  0  0  0
   13.2706   -4.6398   -6.6246 C   0  0  0  0  0  0  0  0  0  0  0  0
   12.1340   -4.9542   -7.5515 O   0  0  0  0  0  0  0  0  0  0  0  0
   13.3430   -3.3001   -5.9540 O   0  0  0  0  0  0  0  0  0  0  0  0
   14.1029   -2.1788   -6.5983 C   0  0  0  0  0  0  0  0  0  0  0  0
   15.6029   -2.1943   -6.6022 C   0  0  0  0  0  0  0  0  0  0  0  0
   16.3531   -1.8617   -7.8578 O   0  0  0  0  0  0  0  0  0  0  0  0
   17.4859   -0.8794   -7.8168 O   0  0  0  0  0  0  0  0  0  0  0  0
   18.1856   -0.5952   -6.5208 C   0  0  0  0  0  0  0  0  0  0  0  0
   17.9731   -1.4962   -5.3404 O   0  0  0  0  0  0  0  0  0  0  0  0
   18.2351   -0.9893   -3.9532 C   0  0  0  0  0  0  0  0  0  0  0  0
   17.0965   -0.8065   -2.9940 C   0  0  0  0  0  0  0  0  0  0  0  0
   16.8663   -1.8101   -1.9032 O   0  0  0  0  0  0  0  0  0  0  0  0
   17.1338   -1.4395   -0.4745 C   0  0  0  0  0  3  0  0  0  0  0  0
   16.0608   -1.6139    0.5591 O   0  0  0  0  0  0  0  0  0  0  0  0
   13.3630   -1.0421   -7.2388 C   0  0  0  0  0  0  0  0  0  0  0  0
   12.7772   -1.2063   -8.6100 O   0  0  0  0  0  0  0  0  0  0  0  0
   13.2087    0.2588   -6.5083 C   0  0  0  0  0  0  0  0  0  0  0  0
   14.1746    1.3788   -6.7589 O   0  0  0  0  0  0  0  0  0  0  0  0
   12.0887    0.4398   -5.5271 C   0  0  0  0  0  0  0  0  0  0  0  0
   11.4246   -0.7591   -4.9174 O   0  0  0  0  0  0  0  0  0  0  0  0
   10.7163   -0.6356   -3.6010 C   0  0  0  0  0  0  0  0  0  0  0  0
    9.5089   -1.4792   -3.3170 O   0  0  0  0  0  0  0  0  0  0  0  0
   11.2153    0.3314   -2.5685 O   0  0  0  0  0  0  0  0  0  0  0  0
   10.3049    1.3996   -2.0394 C   0  0  0  0  0  0  0  0  0  0  0  0
    9.0950    1.8107   -2.8249 N   0  0  0  0  0  4  0  0  0  0  0  0
    8.7955    1.1535   -4.1396 O   0  0  0  0  0  0  0  0  0  0  0  0
    7.5700    0.3018   -4.2904 C   0  0  0  0  0  0  0  0  0  0  0  0
    6.8415    0.2612   -5.6010 O   0  0  0  0  0  0  0  0  0  0  0  0
    5.5297    0.9726   -5.7522 O   0  0  0  0  0  0  0  0  0  0  0  0
    8.1846    2.8790   -2.2958 C   0  0  0  0  0  0  0  0  0  0  0  0
    7.5105    3.8268   -3.2431 C   0  0  0  0  0  0  0  0  0  0  0  0
    6.1258    4.3228   -2.9490 O   0  0  0  0  0  0  0  0  0  0  0  0
    4.9916    3.9671   -3.8641 C   0  0  0  0  0  2  0  0  0  0  0  0
    7.9483    2.9995   -0.8195 O   0  0  0  0  0  0  0  0  0  0  0  0
    8.7483    3.9759   -0.0091 O   0  0  0  0  0  0  0  0  0  0  0  0
    8.0493    4.9909    0.8462 C   0  0  0  0  0  0  0  0  0  0  0  0
    7.0118    5.8918    0.2446 O   0  0  0  0  0  0  0  0  0  0  0  0
    5.7678    6.2221    1.0149 C   0  0  0  0  0  0  0  0  0  0  0  0
    5.2133    5.2382    2.0020 O   0  0  0  0  0  0  0  0  0  0  0  0
    3.7584    5.2786    2.3647 O   0  0  0  0  0  0  0  0  0  0  0  0
    3.0640    6.5974    2.5341 C   0  0  0  0  0  0  0  0  0  0  0  0
    5.0783    7.5364    0.7980 O   0  0  0  0  0  0  0  0  0  0  0  0
    5.7244    8.8080    1.2622 C   0  0  0  0  0  0  0  0  0  0  0  0
    6.7847    8.7668    2.3225 O   0  0  0  0  0  0  0  0  0  0  0  0
    6.4502    8.2733    3.6989 O   0  0  0  0  0  0  0  0  0  0  0  0
    7.4438    8.4252    4.8123 C   0  0  0  0  0  0  0  0  0  0  0  0
    8.6305    9.3265    4.6406 O   0  0  0  0  0  0  0  0  0  0  0  0
    8.5201   10.5585    3.7920 O   0  0  0  0  0  0  0  0  0  0  0  0
    8.8178   11.9049    4.3824 O   0  0  0  0  0  0  0  0  0  0  0  0
    9.2545   13.0329    3.4952 C   0  0  0  0  0  0  0  0  0  0  0  0
   10.2597   14.0302    3.9900 O   0  0  0  0  0  0  0  0  0  0  0  0
    8.6860   13.1634    2.1133 O   0  0  0  0  0  0  0  0  0  0  0  0
  1  2  1  0
  2  3  1  0
  3  4  1  0
  4  5  1  0
  5  6  1  0
  6  7  1  0
  5  8  1  0
  8  9  1  0
  8 10  1  0
 10 11  1  0
 10 12  1  0
 12 13  1  0
 13 14  1  0
 14 15  1  0
 15 16  1  0
 16 17  1  0
 17 18  1  0
 18 19  1  0
 19 20  1  0
 20 21  1  0
 21 22  1  0
 22 23  1  0
 13 24  1  0
 24 25  1  0
 24 26  1  0
 26 27  1  0
 26 28  1  0
 28 29  1  0
 29 30  1  0
 30 31  1  0
 30 32  1  0
 32 33  1  0
 33 34  2  3
 34 35  1  0
 35 36  1  0
 36 37  1  0
 37 38  1  0
 34 39  1  0
 39 40  1  0
 40 41  1  0
 41 42  1  0
 39 43  1  0
 43 44  1  0
 44 45  1  0
 45 46  1  0
 47 46  1  0
 47 48  1  0
 48 49  1  0
 49 50  1  0
 47 51  1  0
 51 52  1  0
 52 53  1  0
 53 54  1  0
 54 55  1  0
 55 56  1  0
 56 57  1  0
 57 58  1  0
 58 59  1  0
 59 60  1  0
 59 61  1  0
M  CHG  1  34   1
M  RAD  3   3   2  22   2  42   3
M  END
>  <docking_score>  (1) 
29.824999999999999

$$$$
