
     RDKit          3D

 15 15  0  0  0  0  0  0  0  0999 V2000
    4.9896   12.7582    2.0303 C   0  0  0  0  0  0  0  0  0  0  0  0
    6.4271   12.5799    2.3937 C   0  0  1  0  0  0  0  0  0  0  0  0
    7.3967   13.3440    1.5704 C   0  0  0  0  0  0  0  0  0  0  0  0
    7.8699   14.6249    2.2204 C   0  0  2  0  0  0  0  0  0  0  0  0
    8.9159   15.1540    1.4934 O   0  0  0  0  0  0  0  0  0  0  0  0
    8.3591   14.3289    3.6207 C   0  0  2  0  0  0  0  0  0  0  0  0
    9.2166   13.2248    3.5698 O   0  0  0  0  0  0  0  0  0  0  0  0
    7.1420   13.8933    4.4180 C   0  0  1  0  0  0  0  0  0  0  0  0
    6.1138   14.8073    4.0914 O   0  0  0  0  0  0  0  0  0  0  0  0
    6.7284   12.5411    3.8386 C   0  0  1  0  0  0  0  0  0  0  0  0
    5.6050   12.1071    4.6326 N   0  0  0  0  0  0  0  0  0  0  0  0
    5.9114   11.1118    5.6043 C   0  0  0  0  0  3  0  0  0  0  0  0
    6.3791    9.8663    4.8816 C   0  0  0  0  0  0  0  0  0  0  0  0
    5.2369    9.1579    4.1770 C   0  0  0  0  0  3  0  0  0  0  0  0
    5.3606    9.1900    2.7906 O   0  0  0  0  0  0  0  0  0  0  0  0
  2  1  1  1
  2  3  1  0
  3  4  1  0
  4  5  1  6
  4  6  1  0
  6  7  1  6
  6  8  1  0
  8  9  1  6
  8 10  1  0
 10 11  1  1
 11 12  1  0
 12 13  1  0
 13 14  1  0
 14 15  1  0
 10  2  1  0
M  RAD  2  12   2  14   2
M  END
>  <docking_score>  (1) 
-3.7269999999999999

$$$$

     RDKit          3D

 15 15  0  0  0  0  0  0  0  0999 V2000
   15.3833   -2.3784   -7.9912 C   0  0  0  0  0  0  0  0  0  0  0  0
   15.9381   -1.9025   -6.6889 C   0  0  1  0  0  0  0  0  0  0  0  0
   15.1825   -0.8076   -6.0314 C   0  0  0  0  0  0  0  0  0  0  0  0
   14.2552   -1.2817   -4.9349 C   0  0  2  0  0  0  0  0  0  0  0  0
   13.7627   -0.1948   -4.2430 O   0  0  0  0  0  0  0  0  0  0  0  0
   15.0222   -2.1583   -3.9699 C   0  0  2  0  0  0  0  0  0  0  0  0
   16.2154   -1.5113   -3.6311 O   0  0  0  0  0  0  0  0  0  0  0  0
   15.4127   -3.4070   -4.7411 C   0  0  1  0  0  0  0  0  0  0  0  0
   14.2586   -3.8007   -5.4568 O   0  0  0  0  0  0  0  0  0  0  0  0
   16.4386   -2.9509   -5.7778 C   0  0  1  0  0  0  0  0  0  0  0  0
   16.8452   -4.1479   -6.4726 N   0  0  0  0  0  0  0  0  0  0  0  0
   17.4381   -5.1444   -5.6454 C   0  0  0  0  0  3  0  0  0  0  0  0
   17.6529   -6.3908   -6.4779 C   0  0  0  0  0  0  0  0  0  0  0  0
   16.9087   -7.5855   -5.9110 C   0  0  0  0  0  3  0  0  0  0  0  0
   15.9694   -7.2244   -4.9489 O   0  0  0  0  0  0  0  0  0  0  0  0
  2  1  1  6
  2  3  1  0
  3  4  1  0
  4  5  1  1
  4  6  1  0
  6  7  1  6
  6  8  1  0
  8  9  1  6
  8 10  1  0
 10 11  1  6
 11 12  1  0
 12 13  1  0
 13 14  1  0
 14 15  1  0
 10  2  1  0
M  RAD  2  12   2  14   2
M  END
>  <docking_score>  (2) 
-3.7250000000000001

$$$$

     RDKit          3D

 15 15  0  0  0  0  0  0  0  0999 V2000
   16.5885   -4.9223   -2.3553 C   0  0  0  0  0  0  0  0  0  0  0  0
   17.1880   -4.9008   -3.7230 C   0  0  1  0  0  0  0  0  0  0  0  0
   17.9764   -6.1010   -4.0969 C   0  0  0  0  0  0  0  0  0  0  0  0
   17.2126   -7.0888   -4.9503 C   0  0  2  0  0  0  0  0  0  0  0  0
   18.0753   -8.0548   -5.4246 O   0  0  0  0  0  0  0  0  0  0  0  0
   16.6020   -6.3680   -6.1315 C   0  0  2  0  0  0  0  0  0  0  0  0
   17.5840   -5.5641   -6.7202 O   0  0  0  0  0  0  0  0  0  0  0  0
   15.5552   -5.4246   -5.5650 C   0  0  1  0  0  0  0  0  0  0  0  0
   14.8335   -6.1726   -4.6064 O   0  0  0  0  0  0  0  0  0  0  0  0
   16.3316   -4.3568   -4.7956 C   0  0  1  0  0  0  0  0  0  0  0  0
   15.3374   -3.4345   -4.3036 N   0  0  0  0  0  0  0  0  0  0  0  0
   14.6348   -2.7203   -5.3159 C   0  0  0  0  0  3  0  0  0  0  0  0
   15.2351   -1.3347   -5.4274 C   0  0  0  0  0  0  0  0  0  0  0  0
   14.1672   -0.2610   -5.5237 C   0  0  0  0  0  3  0  0  0  0  0  0
   13.4546   -0.1063   -4.3377 O   0  0  0  0  0  0  0  0  0  0  0  0
  2  1  1  1
  2  3  1  0
  3  4  1  0
  4  5  1  6
  4  6  1  0
  6  7  1  1
  6  8  1  0
  8  9  1  1
  8 10  1  0
 10 11  1  1
 11 12  1  0
 12 13  1  0
 13 14  1  0
 14 15  1  0
 10  2  1  0
M  RAD  2  12   2  14   2
M  END
>  <docking_score>  (3) 
-3.673

$$$$
