
     RDKit          3D

  9  8  0  0  0  0  0  0  0  0999 V2000
    3.0324   -4.3917   -8.1226 C   0  0  0  0  0  0  0  0  0  0  0  0
    4.2632   -5.2248   -7.8931 C   0  0  0  0  0  0  0  0  0  0  0  0
    5.4616   -4.4181   -7.4829 C   0  0  0  0  0  0  0  0  0  0  0  0
    4.9986   -3.1621   -6.8143 C   0  0  0  0  0  0  0  0  0  0  0  0
    6.1509   -2.3114   -6.3279 C   0  0  0  0  0  0  0  0  0  0  0  0
    5.7499   -0.8656   -6.6537 C   0  0  0  0  0  0  0  0  0  0  0  0
    6.9590    0.1792   -5.7507 S   0  0  0  0  0  0  0  0  0  0  0  0
    6.3778    1.8651   -5.9152 C   0  0  0  0  0  0  0  0  0  0  0  0
    6.4650    2.5739   -4.9277 O   0  0  0  0  0  0  0  0  0  0  0  0
  1  2  1  0
  2  3  1  0
  3  4  1  0
  4  5  1  0
  5  6  1  0
  6  7  1  0
  7  8  1  0
  8  9  2  0
M  END
>  <docking_score>  (1) 
-3.5750000000000002

$$$$

     RDKit          3D

  9  8  0  0  0  0  0  0  0  0999 V2000
   15.7249   -1.9659   -3.4950 C   0  0  0  0  0  0  0  0  0  0  0  0
   16.5172   -1.9263   -2.2173 C   0  0  0  0  0  0  0  0  0  0  0  0
   17.3183   -3.1727   -1.9732 C   0  0  0  0  0  0  0  0  0  0  0  0
   16.5972   -4.3406   -2.5692 C   0  0  0  0  0  0  0  0  0  0  0  0
   17.5000   -5.5400   -2.7545 C   0  0  0  0  0  0  0  0  0  0  0  0
   17.2824   -5.9874   -4.2070 C   0  0  0  0  0  0  0  0  0  0  0  0
   15.6706   -5.2568   -4.6942 S   0  0  0  0  0  0  0  0  0  0  0  0
   14.5932   -6.6374   -5.0684 C   0  0  0  0  0  0  0  0  0  0  0  0
   14.3371   -7.3975   -4.1509 O   0  0  0  0  0  0  0  0  0  0  0  0
  1  2  1  0
  2  3  1  0
  3  4  1  0
  4  5  1  0
  5  6  1  0
  6  7  1  0
  7  8  1  0
  8  9  2  0
M  END
>  <docking_score>  (2) 
-2.9329999999999998

$$$$

     RDKit          3D

  9  8  0  0  0  0  0  0  0  0999 V2000
    6.4544    2.5740   -4.7688 C   0  0  0  0  0  0  0  0  0  0  0  0
    6.0131    2.0884   -6.1219 C   0  0  0  0  0  0  0  0  0  0  0  0
    6.7325    0.8507   -6.5754 C   0  0  0  0  0  0  0  0  0  0  0  0
    5.7267   -0.1580   -7.0336 C   0  0  0  0  0  0  0  0  0  0  0  0
    6.1034   -0.7851   -8.3575 C   0  0  0  0  0  0  0  0  0  0  0  0
    4.9070   -1.6680   -8.7400 C   0  0  0  0  0  0  0  0  0  0  0  0
    5.3055   -3.3283   -8.0666 S   0  0  0  0  0  0  0  0  0  0  0  0
    3.7358   -4.1571   -7.8293 C   0  0  0  0  0  0  0  0  0  0  0  0
    3.7555   -5.3755   -7.8171 O   0  0  0  0  0  0  0  0  0  0  0  0
  1  2  1  0
  2  3  1  0
  3  4  1  0
  4  5  1  0
  5  6  1  0
  6  7  1  0
  7  8  1  0
  8  9  2  0
M  END
>  <docking_score>  (3) 
-1.7390000000000001

$$$$
