
     RDKit          3D

 24 25  0  0  0  0  0  0  0  0999 V2000
   16.6357   -4.0589   -1.4065 C   0  0  0  0  0  0  0  0  0  0  0  0
   16.3772   -3.5214   -2.7805 C   0  0  1  0  0  0  0  0  0  0  0  0
   16.5085   -2.0156   -2.7272 C   0  0  0  0  0  0  0  0  0  0  0  0
   17.9727   -1.6464   -2.4926 C   0  0  2  0  0  0  0  0  0  0  0  0
   18.4972   -1.3516   -3.7524 O   0  0  0  0  0  0  0  0  0  0  0  0
   18.6745   -2.8798   -1.9688 C   0  0  2  0  0  0  0  0  0  0  0  0
   19.9793   -2.4819   -1.6410 O   0  0  0  0  0  0  0  0  0  0  0  0
   18.7736   -3.9381   -3.0385 C   0  0  1  0  0  0  0  0  0  0  0  0
   19.0800   -5.1449   -2.3780 O   0  0  0  0  0  0  0  0  0  0  0  0
   17.4283   -4.0358   -3.7379 C   0  0  1  0  0  0  0  0  0  0  0  0
   17.1535   -5.3927   -4.1662 N   0  0  0  0  0  0  0  0  0  0  0  0
   16.2604   -5.3237   -5.3080 C   0  0  1  0  0  0  0  0  0  0  0  0
   16.9985   -4.5805   -6.4067 C   0  0  0  0  0  0  0  0  0  0  0  0
   16.5994   -5.1160   -7.7788 C   0  0  2  0  0  0  0  0  0  0  0  0
   17.0776   -4.2579   -8.7392 O   0  0  0  0  0  0  0  0  0  0  0  0
   15.0764   -5.1019   -7.8160 C   0  0  0  0  0  0  0  0  0  0  0  0
   14.5786   -3.8889   -8.2454 O   0  0  0  0  0  0  0  0  0  0  0  0
   17.1234   -6.5306   -7.9717 C   0  0  1  0  0  0  0  0  0  0  0  0
   18.3306   -6.5414   -8.6647 O   0  0  0  0  0  0  0  0  0  0  0  0
   17.2782   -7.1274   -6.5846 C   0  0  2  0  0  0  0  0  0  0  0  0
   17.4966   -8.6174   -6.6311 C   0  0  0  0  0  0  0  0  0  0  0  0
   16.0610   -6.7411   -5.8005 C   0  0  1  0  0  0  0  0  0  0  0  0
   15.7470   -7.6287   -4.7840 O   0  0  0  0  0  0  0  0  0  0  0  0
   14.4988   -7.3449   -4.4243 O   0  0  0  0  0  0  0  0  0  0  0  0
  2  1  1  1
  2  3  1  0
  3  4  1  0
  4  5  1  6
  4  6  1  0
  6  7  1  6
  6  8  1  0
  8  9  1  1
  8 10  1  0
 10 11  1  1
 12 11  1  1
 12 13  1  0
 13 14  1  0
 14 15  1  6
 14 16  1  0
 16 17  1  0
 14 18  1  0
 18 19  1  1
 18 20  1  0
 20 21  1  6
 20 22  1  0
 22 23  1  1
 23 24  1  0
 10  2  1  0
 22 12  1  0
M  END
>  <docking_score>  (1) 
-4.9889999999999999

$$$$

     RDKit          3D

 24 25  0  0  0  0  0  0  0  0999 V2000
   17.5762   -3.3795   -1.6898 C   0  0  0  0  0  0  0  0  0  0  0  0
   18.0538   -2.3711   -2.6891 C   0  0  1  0  0  0  0  0  0  0  0  0
   18.7920   -1.2833   -1.9414 C   0  0  0  0  0  0  0  0  0  0  0  0
   20.0981   -1.8511   -1.3873 C   0  0  2  0  0  0  0  0  0  0  0  0
   21.0890   -1.4863   -2.3005 O   0  0  0  0  0  0  0  0  0  0  0  0
   19.9801   -3.3592   -1.4002 C   0  0  2  0  0  0  0  0  0  0  0  0
   21.1335   -3.8504   -0.7705 O   0  0  0  0  0  0  0  0  0  0  0  0
   19.9698   -3.8865   -2.8131 C   0  0  1  0  0  0  0  0  0  0  0  0
   19.4859   -5.2082   -2.7416 O   0  0  0  0  0  0  0  0  0  0  0  0
   19.0367   -3.0173   -3.6390 C   0  0  1  0  0  0  0  0  0  0  0  0
   18.3687   -3.7894   -4.6676 N   0  0  0  0  0  0  0  0  0  0  0  0
   16.9582   -3.4500   -4.6294 C   0  0  1  0  0  0  0  0  0  0  0  0
   16.7360   -2.3534   -5.6552 C   0  0  0  0  0  0  0  0  0  0  0  0
   15.3514   -2.4794   -6.2844 C   0  0  2  0  0  0  0  0  0  0  0  0
   15.0905   -1.3361   -7.0000 O   0  0  0  0  0  0  0  0  0  0  0  0
   14.3643   -2.5760   -5.1280 C   0  0  0  0  0  0  0  0  0  0  0  0
   13.8882   -1.3384   -4.7468 O   0  0  0  0  0  0  0  0  0  0  0  0
   15.2734   -3.7233   -7.1559 C   0  0  1  0  0  0  0  0  0  0  0  0
   15.5121   -3.4281   -8.4952 O   0  0  0  0  0  0  0  0  0  0  0  0
   16.3039   -4.6968   -6.6134 C   0  0  2  0  0  0  0  0  0  0  0  0
   16.1290   -6.0809   -7.1825 C   0  0  0  0  0  0  0  0  0  0  0  0
   16.1974   -4.6635   -5.1190 C   0  0  1  0  0  0  0  0  0  0  0  0
   16.5987   -5.8388   -4.5046 O   0  0  0  0  0  0  0  0  0  0  0  0
   15.9642   -5.8751   -3.3366 O   0  0  0  0  0  0  0  0  0  0  0  0
  2  1  1  1
  2  3  1  0
  3  4  1  0
  4  5  1  6
  4  6  1  0
  6  7  1  1
  6  8  1  0
  8  9  1  1
  8 10  1  0
 10 11  1  6
 12 11  1  6
 12 13  1  0
 13 14  1  0
 14 15  1  6
 14 16  1  0
 16 17  1  0
 14 18  1  0
 18 19  1  6
 18 20  1  0
 20 21  1  6
 20 22  1  0
 22 23  1  1
 23 24  1  0
 10  2  1  0
 22 12  1  0
M  END
>  <docking_score>  (2) 
-4.5739999999999998

$$$$

     RDKit          3D

 24 25  0  0  0  0  0  0  0  0999 V2000
   19.0601   -7.7234   -3.8603 C   0  0  0  0  0  0  0  0  0  0  0  0
   18.7382   -6.3168   -3.4587 C   0  0  1  0  0  0  0  0  0  0  0  0
   20.0378   -5.6101   -3.1436 C   0  0  0  0  0  0  0  0  0  0  0  0
   20.8313   -5.4170   -4.4353 C   0  0  2  0  0  0  0  0  0  0  0  0
   20.5657   -4.1117   -4.8532 O   0  0  0  0  0  0  0  0  0  0  0  0
   20.2601   -6.3653   -5.4661 C   0  0  2  0  0  0  0  0  0  0  0  0
   21.0843   -6.2619   -6.5967 O   0  0  0  0  0  0  0  0  0  0  0  0
   18.8701   -5.9451   -5.8727 C   0  0  1  0  0  0  0  0  0  0  0  0
   18.2904   -7.0563   -6.5174 O   0  0  0  0  0  0  0  0  0  0  0  0
   18.0937   -5.5884   -4.6164 C   0  0  1  0  0  0  0  0  0  0  0  0
   16.6896   -5.9207   -4.7515 N   0  0  0  0  0  0  0  0  0  0  0  0
   15.9245   -4.7082   -4.5268 C   0  0  1  0  0  0  0  0  0  0  0  0
   16.9073   -3.5514   -4.5459 C   0  0  0  0  0  0  0  0  0  0  0  0
   16.2532   -2.3009   -5.1266 C   0  0  2  0  0  0  0  0  0  0  0  0
   17.0745   -1.2261   -4.8868 O   0  0  0  0  0  0  0  0  0  0  0  0
   14.9490   -2.1077   -4.3632 C   0  0  0  0  0  0  0  0  0  0  0  0
   15.0959   -1.2496   -3.2928 O   0  0  0  0  0  0  0  0  0  0  0  0
   15.9786   -2.4837   -6.6113 C   0  0  1  0  0  0  0  0  0  0  0  0
   16.9926   -1.9364   -7.3925 O   0  0  0  0  0  0  0  0  0  0  0  0
   15.8468   -3.9776   -6.8460 C   0  0  2  0  0  0  0  0  0  0  0  0
   15.2751   -4.2883   -8.2049 C   0  0  0  0  0  0  0  0  0  0  0  0
   15.0180   -4.5280   -5.7254 C   0  0  1  0  0  0  0  0  0  0  0  0
   14.3244   -5.6804   -6.0583 O   0  0  0  0  0  0  0  0  0  0  0  0
   13.0593   -5.4568   -5.7151 O   0  0  0  0  0  0  0  0  0  0  0  0
  2  1  1  6
  2  3  1  0
  3  4  1  0
  4  5  1  6
  4  6  1  0
  6  7  1  6
  6  8  1  0
  8  9  1  1
  8 10  1  0
 10 11  1  6
 12 11  1  6
 12 13  1  0
 13 14  1  0
 14 15  1  6
 14 16  1  0
 16 17  1  0
 14 18  1  0
 18 19  1  6
 18 20  1  0
 20 21  1  6
 20 22  1  0
 22 23  1  6
 23 24  1  0
 10  2  1  0
 22 12  1  0
M  END
>  <docking_score>  (3) 
-4.133

$$$$
