
     RDKit          3D

 21 20  0  0  0  0  0  0  0  0999 V2000
   17.2679   -1.5491   -4.9569 C   0  0  0  0  0  0  0  0  0  0  0  0
   16.5400   -1.2122   -6.2022 C   0  0  0  0  0  0  0  0  0  0  0  0
   15.1004   -0.8520   -5.9965 C   0  0  0  0  0  0  0  0  0  0  0  0
   16.6711   -2.1349   -7.3573 C   0  0  0  0  0  0  0  0  0  0  0  0
   15.4324   -2.4382   -8.1043 C   0  0  0  0  0  0  0  0  0  0  0  0
   14.8948   -3.7932   -7.9889 C   0  0  0  0  0  0  0  0  0  0  0  0
   15.1721   -4.6047   -6.7982 C   0  0  1  0  0  0  0  0  0  0  0  0
   14.1178   -4.3805   -5.7049 C   0  0  0  0  0  0  0  0  0  0  0  0
   15.5575   -6.0144   -6.9118 C   0  0  0  0  0  3  0  0  0  0  0  0
   16.7879   -6.3491   -7.6750 C   0  0  0  0  0  0  0  0  0  0  0  0
   17.9162   -6.5927   -6.6972 C   0  0  0  0  0  3  0  0  0  0  0  0
   19.0322   -5.6444   -7.0496 C   0  0  0  0  0  0  0  0  0  0  0  0
   18.7443   -5.1421   -8.4565 C   0  0  0  0  0  0  0  0  0  0  0  0
   20.3400   -6.4098   -6.9911 C   0  0  0  0  0  0  0  0  0  0  0  0
   19.1528   -4.5215   -6.1065 C   0  0  0  0  0  0  0  0  0  0  0  0
   19.0197   -4.7399   -4.8600 N   0  0  0  0  0  3  0  0  0  0  0  0
   18.7557   -6.0678   -4.3945 C   0  0  0  0  0  0  0  0  0  0  0  0
   18.1716   -5.9826   -3.0160 C   0  0  0  0  0  0  0  0  0  0  0  0
   16.8453   -5.5031   -3.1286 O   0  0  0  0  0  0  0  0  0  0  0  0
   16.4261   -4.3498   -2.4624 C   0  0  0  0  0  0  0  0  0  0  0  0
   17.2490   -3.8216   -1.6705 O   0  0  0  0  0  0  0  0  0  0  0  0
  1  2  1  0
  2  3  1  0
  2  4  1  0
  4  5  1  0
  5  6  1  0
  6  7  1  0
  7  8  1  1
  7  9  1  0
  9 10  1  0
 10 11  1  0
 11 12  1  0
 12 13  1  0
 12 14  1  0
 12 15  1  0
 15 16  2  3
 16 17  1  0
 17 18  1  0
 18 19  1  0
 19 20  1  0
 20 21  2  0
M  CHG  1  16   1
M  RAD  3   9   2  11   2  16   2
M  END
>  <docking_score>  (1) 
-3.181

$$$$

     RDKit          3D

 21 20  0  0  0  0  0  0  0  0999 V2000
   19.1301   -1.1873   -3.0885 C   0  0  0  0  0  0  0  0  0  0  0  0
   18.3250   -1.6533   -4.2412 C   0  0  0  0  0  0  0  0  0  0  0  0
   18.4932   -0.8320   -5.4829 C   0  0  0  0  0  0  0  0  0  0  0  0
   16.8867   -1.9415   -4.0156 C   0  0  0  0  0  0  0  0  0  0  0  0
   16.5110   -2.4116   -2.6657 C   0  0  0  0  0  0  0  0  0  0  0  0
   16.4494   -3.8569   -2.4523 C   0  0  0  0  0  0  0  0  0  0  0  0
   17.3335   -4.7578   -3.2006 C   0  0  1  0  0  0  0  0  0  0  0  0
   18.6610   -4.9855   -2.4639 C   0  0  0  0  0  0  0  0  0  0  0  0
   16.8236   -5.9890   -3.8115 C   0  0  0  0  0  3  0  0  0  0  0  0
   17.3120   -6.3582   -5.1655 C   0  0  0  0  0  0  0  0  0  0  0  0
   17.4135   -5.1040   -6.0053 C   0  0  0  0  0  3  0  0  0  0  0  0
   18.1593   -5.4622   -7.2640 C   0  0  0  0  0  0  0  0  0  0  0  0
   19.4474   -6.1421   -6.8245 C   0  0  0  0  0  0  0  0  0  0  0  0
   18.4406   -4.1827   -8.0279 C   0  0  0  0  0  0  0  0  0  0  0  0
   17.3864   -6.3341   -8.1626 C   0  0  0  0  0  0  0  0  0  0  0  0
   16.2675   -5.9278   -8.6119 N   0  0  0  0  0  3  0  0  0  0  0  0
   15.7781   -4.6351   -8.2392 C   0  0  0  0  0  0  0  0  0  0  0  0
   14.2793   -4.6793   -8.2218 C   0  0  0  0  0  0  0  0  0  0  0  0
   13.8794   -5.7144   -7.3441 O   0  0  0  0  0  0  0  0  0  0  0  0
   13.7678   -5.5035   -5.9684 C   0  0  0  0  0  0  0  0  0  0  0  0
   13.6379   -4.3118   -5.5859 O   0  0  0  0  0  0  0  0  0  0  0  0
  1  2  1  0
  2  3  1  0
  2  4  1  0
  4  5  1  0
  5  6  1  0
  6  7  1  0
  7  8  1  1
  7  9  1  0
  9 10  1  0
 10 11  1  0
 11 12  1  0
 12 13  1  0
 12 14  1  0
 12 15  1  0
 15 16  2  3
 16 17  1  0
 17 18  1  0
 18 19  1  0
 19 20  1  0
 20 21  2  0
M  CHG  1  16   1
M  RAD  3   9   2  11   2  16   2
M  END
>  <docking_score>  (2) 
-3.1200000000000001

$$$$

     RDKit          3D

 21 20  0  0  0  0  0  0  0  0999 V2000
   18.2436   -3.2497   -7.4877 C   0  0  0  0  0  0  0  0  0  0  0  0
   17.5338   -2.3089   -6.5904 C   0  0  0  0  0  0  0  0  0  0  0  0
   18.0123   -2.3313   -5.1709 C   0  0  0  0  0  0  0  0  0  0  0  0
   16.0500   -2.2987   -6.6247 C   0  0  0  0  0  0  0  0  0  0  0  0
   15.3579   -2.6720   -5.3733 C   0  0  0  0  0  0  0  0  0  0  0  0
   14.1484   -3.4850   -5.4931 C   0  0  0  0  0  0  0  0  0  0  0  0
   14.2409   -4.9460   -5.5934 C   0  0  1  0  0  0  0  0  0  0  0  0
   14.0190   -5.4277   -7.0341 C   0  0  0  0  0  0  0  0  0  0  0  0
   15.3131   -5.6876   -4.9229 C   0  0  0  0  0  3  0  0  0  0  0  0
   16.5277   -6.0327   -5.7065 C   0  0  0  0  0  0  0  0  0  0  0  0
   17.6530   -6.3488   -4.7462 C   0  0  0  0  0  3  0  0  0  0  0  0
   18.4664   -7.4615   -5.3539 C   0  0  0  0  0  0  0  0  0  0  0  0
   19.0071   -6.9307   -6.6732 C   0  0  0  0  0  0  0  0  0  0  0  0
   17.5528   -8.6528   -5.5684 C   0  0  0  0  0  0  0  0  0  0  0  0
   19.5619   -7.9156   -4.4829 C   0  0  0  0  0  0  0  0  0  0  0  0
   20.1036   -7.0876   -3.6828 N   0  0  0  0  0  3  0  0  0  0  0  0
   19.6425   -5.7329   -3.6410 C   0  0  0  0  0  0  0  0  0  0  0  0
   20.4671   -4.9792   -2.6407 C   0  0  0  0  0  0  0  0  0  0  0  0
   20.9583   -3.8094   -3.2669 O   0  0  0  0  0  0  0  0  0  0  0  0
   20.7927   -2.5480   -2.6916 C   0  0  0  0  0  0  0  0  0  0  0  0
   20.4225   -2.5171   -1.4893 O   0  0  0  0  0  0  0  0  0  0  0  0
  1  2  1  0
  2  3  1  0
  2  4  1  0
  4  5  1  0
  5  6  1  0
  6  7  1  0
  7  8  1  6
  7  9  1  0
  9 10  1  0
 10 11  1  0
 11 12  1  0
 12 13  1  0
 12 14  1  0
 12 15  1  0
 15 16  2  3
 16 17  1  0
 17 18  1  0
 18 19  1  0
 19 20  1  0
 20 21  2  0
M  CHG  1  16   1
M  RAD  3   9   2  11   2  16   2
M  END
>  <docking_score>  (3) 
-2.6629999999999998

$$$$
