
     RDKit          3D

 27 29  0  0  0  0  0  0  0  0999 V2000
   19.7630   -1.3208   -1.6474 C   0  0  0  0  0  0  0  0  0  0  0  0
   19.6732   -2.6228   -1.7342 C   0  0  0  0  0  0  0  0  0  0  0  0
   20.9125   -3.4346   -1.7705 C   0  0  0  0  0  0  0  0  0  0  0  0
   20.6650   -4.8318   -2.3668 C   0  0  0  0  0  0  0  0  0  0  0  0
   19.6946   -4.6733   -3.4501 C   0  0  1  0  0  0  0  0  0  0  0  0
   19.4469   -5.7973   -4.3730 C   0  0  0  0  0  0  0  0  0  0  0  0
   20.6657   -6.0002   -5.2560 C   0  0  0  0  0  0  0  0  0  0  0  0
   19.2816   -7.0922   -3.5666 C   0  0  0  0  0  0  0  0  0  0  0  0
   18.2185   -5.6326   -5.1965 C   0  0  0  0  0  0  0  0  0  0  0  0
   17.6260   -4.2905   -5.3356 C   0  0  2  0  0  0  0  0  0  0  0  0
   17.9219   -3.3217   -4.2297 C   0  0  0  0  0  0  0  0  0  0  0  0
   18.3222   -4.1582   -3.0124 C   0  0  1  0  0  0  0  0  0  0  0  0
   17.3795   -5.3086   -2.8028 C   0  0  0  0  0  0  0  0  0  0  0  0
   18.3914   -3.3199   -1.7979 C   0  0  2  0  0  0  0  0  0  0  0  0
   17.1709   -2.4715   -1.6891 C   0  0  0  0  0  0  0  0  0  0  0  0
   16.4446   -2.1770   -2.8627 C   0  0  0  0  0  0  0  0  0  0  0  0
   15.7739   -2.4336   -3.8766 C   0  0  0  0  0  0  0  0  0  0  0  0
   15.2361   -1.4325   -4.8490 C   0  0  0  0  0  0  0  0  0  0  0  0
   14.0023   -1.2939   -4.9045 O   0  0  0  0  0  0  0  0  0  0  0  0
   15.3582   -3.7939   -4.3491 C   0  0  0  0  0  0  0  0  0  0  0  0
   16.1245   -4.2820   -5.5318 C   0  0  1  0  0  0  0  0  0  0  0  0
   15.8749   -3.4369   -6.6240 O   0  0  0  0  0  0  0  0  0  0  0  0
   16.9645   -3.3781   -7.4836 C   0  0  0  0  0  0  0  0  0  0  0  0
   15.6143   -5.6935   -5.8264 C   0  0  2  0  0  0  0  0  0  0  0  0
   14.5721   -5.7008   -6.8958 C   0  0  0  0  0  2  0  0  0  0  0  0
   15.0928   -6.3069   -4.5763 C   0  0  0  0  0  0  0  0  0  0  0  0
   14.3030   -7.2440   -4.6435 O   0  0  0  0  0  0  0  0  0  0  0  0
  1  2  2  0
  2  3  1  0
  3  4  1  0
  5  4  1  1
  5  6  1  0
  6  7  1  0
  6  8  1  0
  6  9  1  0
 10  9  1  1
 10 11  1  0
 11 12  1  0
 12 13  1  1
 12 14  1  0
 14 15  1  6
 15 16  1  0
 16 17  2  0
 17 18  1  0
 18 19  2  0
 17 20  1  0
 20 21  1  0
 21 22  1  6
 22 23  1  0
 21 24  1  0
 24 25  1  6
 24 26  1  0
 26 27  2  0
 14  2  1  0
 12  5  1  0
 21 10  1  0
M  RAD  1  25   3
M  END
>  <docking_score>  (1) 
-6.2939999999999996

$$$$

     RDKit          3D

 27 29  0  0  0  0  0  0  0  0999 V2000
   13.9491   -3.5703   -6.4063 C   0  0  0  0  0  0  0  0  0  0  0  0
   14.9872   -2.8314   -6.7013 C   0  0  0  0  0  0  0  0  0  0  0  0
   15.5053   -2.8296   -8.0897 C   0  0  0  0  0  0  0  0  0  0  0  0
   16.9642   -2.3438   -8.1562 C   0  0  0  0  0  0  0  0  0  0  0  0
   17.6471   -2.8642   -6.9715 C   0  0  1  0  0  0  0  0  0  0  0  0
   19.1170   -2.7749   -6.8831 C   0  0  0  0  0  0  0  0  0  0  0  0
   19.7396   -3.7349   -7.8817 C   0  0  0  0  0  0  0  0  0  0  0  0
   19.5685   -1.3693   -7.3012 C   0  0  0  0  0  0  0  0  0  0  0  0
   19.6475   -3.0178   -5.5143 C   0  0  0  0  0  0  0  0  0  0  0  0
   18.7900   -3.6947   -4.5252 C   0  0  2  0  0  0  0  0  0  0  0  0
   17.3112   -3.5780   -4.7457 C   0  0  0  0  0  0  0  0  0  0  0  0
   17.0984   -2.3532   -5.6381 C   0  0  1  0  0  0  0  0  0  0  0  0
   17.9054   -1.1796   -5.1611 C   0  0  0  0  0  0  0  0  0  0  0  0
   15.6661   -1.9987   -5.7119 C   0  0  2  0  0  0  0  0  0  0  0  0
   15.0712   -1.9769   -4.3456 C   0  0  0  0  0  0  0  0  0  0  0  0
   15.6897   -2.7314   -3.3260 C   0  0  0  0  0  0  0  0  0  0  0  0
   16.6098   -3.0658   -2.5610 C   0  0  0  0  0  0  0  0  0  0  0  0
   16.5507   -4.1614   -1.5445 C   0  0  0  0  0  0  0  0  0  0  0  0
   16.2327   -3.8494   -0.3843 O   0  0  0  0  0  0  0  0  0  0  0  0
   17.9749   -2.4515   -2.4874 C   0  0  0  0  0  0  0  0  0  0  0  0
   19.0489   -3.2941   -3.0880 C   0  0  1  0  0  0  0  0  0  0  0  0
   19.1593   -4.4888   -2.3601 O   0  0  0  0  0  0  0  0  0  0  0  0
   19.5611   -5.5443   -3.1688 C   0  0  0  0  0  0  0  0  0  0  0  0
   20.3437   -2.4871   -2.9813 C   0  0  2  0  0  0  0  0  0  0  0  0
   21.3728   -3.1852   -2.1546 C   0  0  0  0  0  2  0  0  0  0  0  0
   20.0476   -1.1389   -2.4282 C   0  0  0  0  0  0  0  0  0  0  0  0
   19.6667   -1.0295   -1.2666 O   0  0  0  0  0  0  0  0  0  0  0  0
  1  2  2  0
  2  3  1  0
  3  4  1  0
  5  4  1  6
  5  6  1  0
  6  7  1  0
  6  8  1  0
  6  9  1  0
 10  9  1  6
 10 11  1  0
 11 12  1  0
 12 13  1  1
 12 14  1  0
 14 15  1  1
 15 16  1  0
 16 17  2  0
 17 18  1  0
 18 19  2  0
 17 20  1  0
 20 21  1  0
 21 22  1  1
 22 23  1  0
 21 24  1  0
 24 25  1  1
 24 26  1  0
 26 27  2  0
 14  2  1  0
 12  5  1  0
 21 10  1  0
M  RAD  1  25   3
M  END
>  <docking_score>  (2) 
-4.1139999999999999

$$$$
