
     RDKit          3D

 60 63  0  0  0  0  0  0  0  0999 V2000
    6.6850   12.5029    5.1732 C   0  0  0  0  0  0  0  0  0  0  0  0
    6.5630   11.0625    5.6417 C   0  0  0  0  0  3  0  0  0  0  0  0
    5.3849   10.3549    5.0070 C   0  0  2  0  0  0  0  0  0  0  0  0
    5.2775   10.6667    3.5168 C   0  0  2  0  0  0  0  0  0  0  0  0
    6.4552   10.3453    2.8879 O   0  0  0  0  0  0  0  0  0  0  0  0
    5.0055   12.1284    3.3583 C   0  0  0  0  0  0  0  0  0  0  0  0
    3.6783   12.5816    3.8778 C   0  0  0  0  0  0  0  0  0  0  0  0
    2.6909   11.6248    3.8733 O   0  0  0  0  0  0  0  0  0  0  0  0
    2.9548   10.5883    4.7794 C   0  0  1  0  0  0  0  0  0  0  0  0
    3.0839    9.4306    4.0298 O   0  0  0  0  0  0  0  0  0  0  0  0
    4.1330   10.8809    5.6404 C   0  0  1  0  0  0  0  0  0  0  0  0
    4.0237   10.4660    6.9925 N   0  0  0  0  0  0  0  0  0  0  0  0
    3.4697   11.4730    7.8243 C   0  0  0  0  0  0  0  0  0  0  0  0
    3.7699   12.8894    7.4209 C   0  0  0  0  0  0  0  0  0  0  0  0
    4.5645   13.5292    8.5402 C   0  0  1  0  0  0  0  0  0  0  0  0
    5.2882   12.4588    9.3376 C   0  0  0  0  0  2  0  0  0  0  0  0
    5.6331   14.3852    7.8783 C   0  0  0  0  0  0  0  0  0  0  0  0
    5.7820   15.7162    8.5690 C   0  0  0  0  0  2  0  0  0  0  0  0
    3.6363   14.3350    9.3795 C   0  0  1  0  0  0  0  0  0  0  0  0
    2.7929   15.1206    8.6450 O   0  0  0  0  0  0  0  0  0  0  0  0
    2.9692   13.5822   10.4989 C   0  0  1  0  0  0  0  0  0  0  0  0
    3.1084   12.0852   10.3360 C   0  0  0  0  0  0  0  0  0  0  0  0
    3.7666   13.9401   11.7625 C   0  0  1  0  0  0  0  0  0  0  0  0
    4.1332   15.3856   11.8094 C   0  0  0  0  0  3  0  0  0  0  0  0
    3.0724   16.0377   12.6563 C   0  0  0  0  0  0  0  0  0  0  0  0
    2.3465   14.9550   13.3802 C   0  0  0  0  0  0  0  0  0  0  0  0
    2.8639   13.6333   12.9195 C   0  0  2  0  0  0  0  0  0  0  0  0
    3.6740   12.9052   13.9785 C   0  0  2  0  0  0  0  0  0  0  0  0
    2.9203   12.9337   15.1502 O   0  0  0  0  0  0  0  0  0  0  0  0
    3.1101   14.1873   15.7170 C   0  0  0  0  0  0  0  0  0  0  0  0
    4.1951   14.7738   15.1125 O   0  0  0  0  0  0  0  0  0  0  0  0
    4.8349   13.8091   14.3336 C   0  0  1  0  0  0  0  0  0  0  0  0
    5.8948   13.0627   15.1149 C   0  0  0  0  0  0  0  0  0  0  0  0
    7.1009   13.7073   14.9346 O   0  0  0  0  0  0  0  0  0  0  0  0
    7.4890   13.7946   13.6182 C   0  0  0  0  0  0  0  0  0  0  0  0
    7.3981   12.5471   12.9667 O   0  0  0  0  0  0  0  0  0  0  0  0
    8.5168   11.7695   13.2425 C   0  0  0  0  0  3  0  0  0  0  0  0
    9.4947   12.0512   12.2742 O   0  0  0  0  0  0  0  0  0  0  0  0
   10.0163   10.8437   11.8617 C   0  0  0  0  0  3  0  0  0  0  0  0
    9.9145   10.6048   10.3718 C   0  0  0  0  0  0  0  0  0  0  0  0
   11.1781   11.1342    9.7346 C   0  0  0  0  0  0  0  0  0  0  0  0
   11.9984    9.9905    9.2965 C   0  0  0  0  0  0  0  0  0  0  0  0
   11.5466    9.0136    8.5172 C   0  0  0  0  0  0  0  0  0  0  0  0
   10.1545    8.9887    8.0109 C   0  0  0  0  0  0  0  0  0  0  0  0
    9.9956    9.6809    6.6782 C   0  0  0  0  0  0  0  0  0  0  0  0
    9.4152    8.7159    5.6249 C   0  0  1  0  0  0  0  0  0  0  0  0
    9.8934    7.3483    5.9666 C   0  0  0  0  0  0  0  0  0  0  0  0
   10.1494    6.5310    4.8918 F   0  0  0  0  0  0  0  0  0  0  0  0
    7.9236    8.8658    5.5886 C   0  0  0  0  0  0  0  0  0  0  0  0
    7.2555    7.5510    5.8691 C   0  0  0  0  0  3  0  0  0  0  0  0
    6.0447    7.5133    5.1828 O   0  0  0  0  0  0  0  0  0  0  0  0
    5.4306    6.3008    5.5715 C   0  0  0  0  0  0  0  0  0  0  0  0
    4.1314    6.5232    6.1275 N   0  0  2  0  0  4  0  0  0  0  0  0
    3.7235    5.3507    6.8817 C   0  0  1  0  0  0  0  0  0  0  0  0
    2.5185    5.6899    7.7436 C   0  0  0  0  0  2  0  0  0  0  0  0
    3.1004    6.5396    5.0808 C   0  0  0  0  0  0  0  0  0  0  0  0
    3.1029    5.2061    4.6390 O   0  0  0  0  0  0  0  0  0  0  0  0
    3.2820    4.4174    5.7616 C   0  0  0  0  0  3  0  0  0  0  0  0
    4.0616    7.6489    6.8753 O   0  0  0  0  0  0  0  0  0  0  0  0
    3.0280    7.5088    7.7400 N   0  0  0  0  0  0  0  0  0  0  0  0
  1  2  1  0
  3  2  1  1
  3  4  1  0
  4  5  1  6
  4  6  1  0
  6  7  1  0
  7  8  1  0
  8  9  1  0
  9 10  1  6
  9 11  1  0
 11 12  1  1
 12 13  1  0
 13 14  1  0
 14 15  1  0
 15 16  1  1
 15 17  1  0
 17 18  1  0
 15 19  1  0
 19 20  1  6
 19 21  1  0
 21 22  1  6
 23 21  1  0
 23 24  1  6
 24 25  1  0
 25 26  1  0
 27 26  1  1
 27 28  1  0
 28 29  1  1
 29 30  1  0
 30 31  1  0
 31 32  1  0
 32 33  1  1
 33 34  1  0
 34 35  1  0
 35 36  1  0
 36 37  1  0
 37 38  1  0
 38 39  1  0
 39 40  1  0
 40 41  1  0
 41 42  1  0
 42 43  2  3
 43 44  1  0
 44 45  1  0
 46 45  1  1
 46 47  1  0
 47 48  1  0
 46 49  1  0
 49 50  1  0
 50 51  1  0
 51 52  1  0
 53 52  1  6
 53 54  1  0
 54 55  1  1
 53 56  1  0
 56 57  1  0
 57 58  1  0
 53 59  1  0
 59 60  1  0
 11  3  1  0
 27 23  1  0
 32 28  1  0
 58 54  1  0
M  RAD  8   2   2  16   3  18   3  24   2  37   2  39   2  50   2  55   3
M  CHG  1  53   1
M  RAD  1  58   2
M  END
>  <docking_score>  (1) 
15.701000000000001

$$$$
