
     RDKit          3D

 24 25  0  0  0  0  0  0  0  0999 V2000
    6.2829   11.3576   13.1597 C   0  0  0  0  0  0  0  0  0  0  0  0
    5.0320   10.7727   13.3060 O   0  0  0  0  0  0  0  0  0  0  0  0
    4.1938   11.0071   12.2233 C   0  0  0  0  0  3  0  0  0  0  0  0
    3.7850    9.7995   11.7134 O   0  0  0  0  0  0  0  0  0  0  0  0
    4.4903    9.4262   10.5718 C   0  0  2  0  0  0  0  0  0  0  0  0
    4.3637   10.3511    9.4056 C   0  0  0  0  0  0  0  0  0  0  0  0
    3.8605    8.2979    9.7778 C   0  0  0  0  0  3  0  0  0  0  0  0
    3.7152    9.2552    8.6028 C   0  0  2  0  0  0  0  0  0  0  0  0
    4.4807    8.8558    7.3677 C   0  0  0  0  0  3  0  0  0  0  0  0
    3.8590    9.4401    6.1699 C   0  0  0  0  0  0  0  0  0  0  0  0
    3.9228    8.8378    4.9688 C   0  0  0  0  0  0  0  0  0  0  0  0
    4.7830    7.2959    4.8367 S   0  0  0  0  0  0  0  0  0  0  0  0
    3.2436    9.5105    3.8452 C   0  0  0  0  0  0  0  0  0  0  0  0
    4.1288    9.3750    2.6108 C   0  0  0  0  0  0  0  0  0  0  0  0
    5.2023   10.2719    2.8021 O   0  0  0  0  0  0  0  0  0  0  0  0
    5.9573   10.2859    1.6488 C   0  0  0  0  0  0  0  0  0  0  0  0
    6.9786   11.2065    1.7301 O   0  0  0  0  0  0  0  0  0  0  0  0
    6.5338   12.4308    1.2471 C   0  0  2  0  0  0  0  0  0  0  0  0
    7.5621   13.4177    1.1681 O   0  0  0  0  0  0  0  0  0  0  0  0
    6.4164   13.5495    2.0910 C   0  0  2  0  0  0  0  0  0  0  0  0
    6.8573   13.6084    3.5470 C   0  0  0  0  0  3  0  0  0  0  0  0
    6.4028   14.9495    4.0869 C   0  0  2  0  0  0  0  0  0  0  0  0
    7.6400   15.6162    4.6768 C   0  0  0  0  0  0  0  0  0  0  0  0
    5.5461   14.6863    5.1585 O   0  0  0  0  0  0  0  0  0  0  0  0
  1  2  1  0
  2  3  1  0
  3  4  1  0
  5  4  1  1
  5  6  1  0
  5  7  1  0
  7  8  1  0
  8  9  1  6
  9 10  1  0
 10 11  2  3
 11 12  1  0
 11 13  1  0
 13 14  1  0
 14 15  1  0
 15 16  1  0
 16 17  1  0
 18 17  1  1
 18 19  1  0
 18 20  1  0
 20 21  1  1
 21 22  1  0
 22 23  1  1
 22 24  1  0
  8  6  1  0
 20 19  1  0
M  RAD  4   3   2   7   2   9   2  21   2
M  END
>  <docking_score>  (1) 
-3.1859999999999999

$$$$

     RDKit          3D

 24 25  0  0  0  0  0  0  0  0999 V2000
   18.5928  -12.6779   -8.4721 C   0  0  0  0  0  0  0  0  0  0  0  0
   18.0491  -11.4286   -8.7399 O   0  0  0  0  0  0  0  0  0  0  0  0
   18.3269  -10.4929   -7.7514 C   0  0  0  0  0  3  0  0  0  0  0  0
   18.3982   -9.2495   -8.3296 O   0  0  0  0  0  0  0  0  0  0  0  0
   18.6262   -8.2335   -7.4045 C   0  0  2  0  0  0  0  0  0  0  0  0
   17.4290   -7.7864   -6.6311 C   0  0  0  0  0  0  0  0  0  0  0  0
   18.7850   -6.8510   -8.0071 C   0  0  0  0  0  3  0  0  0  0  0  0
   17.5502   -6.4116   -7.2322 C   0  0  2  0  0  0  0  0  0  0  0  0
   17.7951   -5.3154   -6.2276 C   0  0  0  0  0  3  0  0  0  0  0  0
   16.6666   -4.3725   -6.2147 C   0  0  0  0  0  0  0  0  0  0  0  0
   16.7647   -3.1374   -6.7387 C   0  0  0  0  0  0  0  0  0  0  0  0
   18.3025   -2.6420   -7.4629 S   0  0  0  0  0  0  0  0  0  0  0  0
   15.5589   -2.2892   -6.6847 C   0  0  0  0  0  0  0  0  0  0  0  0
   14.7198   -2.7391   -5.4934 C   0  0  0  0  0  0  0  0  0  0  0  0
   14.4198   -1.5676   -4.7648 O   0  0  0  0  0  0  0  0  0  0  0  0
   15.2327   -1.5373   -3.6519 C   0  0  0  0  0  0  0  0  0  0  0  0
   15.7044   -2.7938   -3.3421 O   0  0  0  0  0  0  0  0  0  0  0  0
   16.4563   -2.7281   -2.1757 C   0  0  2  0  0  0  0  0  0  0  0  0
   17.2257   -1.5310   -2.0627 O   0  0  0  0  0  0  0  0  0  0  0  0
   17.8561   -2.8597   -2.2011 C   0  0  2  0  0  0  0  0  0  0  0  0
   18.7117   -2.9601   -3.4563 C   0  0  0  0  0  3  0  0  0  0  0  0
   20.1185   -3.2912   -3.0004 C   0  0  2  0  0  0  0  0  0  0  0  0
   20.0439   -3.4950   -1.4917 C   0  0  0  0  0  0  0  0  0  0  0  0
   20.8921   -2.1465   -3.2074 O   0  0  0  0  0  0  0  0  0  0  0  0
  1  2  1  0
  2  3  1  0
  3  4  1  0
  5  4  1  6
  5  6  1  0
  5  7  1  0
  7  8  1  0
  8  9  1  1
  9 10  1  0
 10 11  2  3
 11 12  1  0
 11 13  1  0
 13 14  1  0
 14 15  1  0
 15 16  1  0
 16 17  1  0
 18 17  1  6
 18 19  1  0
 18 20  1  0
 20 21  1  6
 21 22  1  0
 22 23  1  1
 22 24  1  0
  8  6  1  0
 20 19  1  0
M  RAD  4   3   2   7   2   9   2  21   2
M  END
>  <docking_score>  (2) 
-3.1749999999999998

$$$$

     RDKit          3D

 24 25  0  0  0  0  0  0  0  0999 V2000
   19.4670    8.9114   -1.6899 C   0  0  0  0  0  0  0  0  0  0  0  0
   18.7390    8.0916   -2.5420 O   0  0  0  0  0  0  0  0  0  0  0  0
   19.5431    7.3380   -3.3878 C   0  0  0  0  0  3  0  0  0  0  0  0
   18.9020    7.1958   -4.5937 O   0  0  0  0  0  0  0  0  0  0  0  0
   19.5284    6.2804   -5.4363 C   0  0  2  0  0  0  0  0  0  0  0  0
   18.9392    4.9078   -5.4476 C   0  0  0  0  0  0  0  0  0  0  0  0
   20.8458    5.7383   -4.9163 C   0  0  0  0  0  3  0  0  0  0  0  0
   20.2284    4.3465   -4.9100 C   0  0  2  0  0  0  0  0  0  0  0  0
   20.9016    3.3555   -5.8240 C   0  0  0  0  0  3  0  0  0  0  0  0
   20.0786    2.1444   -5.9597 C   0  0  0  0  0  0  0  0  0  0  0  0
   20.1824    1.1132   -5.1022 C   0  0  0  0  0  0  0  0  0  0  0  0
   21.3475    1.2273   -3.7739 S   0  0  0  0  0  0  0  0  0  0  0  0
   19.2895   -0.0391   -5.3290 C   0  0  0  0  0  0  0  0  0  0  0  0
   20.1573   -1.2831   -5.4876 C   0  0  0  0  0  0  0  0  0  0  0  0
   19.4093   -2.1803   -6.2806 O   0  0  0  0  0  0  0  0  0  0  0  0
   18.0724   -1.9649   -6.0228 C   0  0  0  0  0  0  0  0  0  0  0  0
   17.4141   -3.1483   -5.7707 O   0  0  0  0  0  0  0  0  0  0  0  0
   16.0929   -2.8776   -5.4370 C   0  0  2  0  0  0  0  0  0  0  0  0
   15.8684   -2.7932   -4.0299 O   0  0  0  0  0  0  0  0  0  0  0  0
   15.2703   -3.8601   -4.8579 C   0  0  2  0  0  0  0  0  0  0  0  0
   15.7228   -5.2464   -4.4209 C   0  0  0  0  0  3  0  0  0  0  0  0
   15.2089   -6.2215   -5.4608 C   0  0  2  0  0  0  0  0  0  0  0  0
   13.8010   -5.7621   -5.8213 C   0  0  0  0  0  0  0  0  0  0  0  0
   15.0712   -7.4578   -4.8250 O   0  0  0  0  0  0  0  0  0  0  0  0
  1  2  1  0
  2  3  1  0
  3  4  1  0
  5  4  1  1
  5  6  1  0
  5  7  1  0
  7  8  1  0
  8  9  1  6
  9 10  1  0
 10 11  2  3
 11 12  1  0
 11 13  1  0
 13 14  1  0
 14 15  1  0
 15 16  1  0
 16 17  1  0
 18 17  1  1
 18 19  1  0
 18 20  1  0
 20 21  1  1
 21 22  1  0
 22 23  1  1
 22 24  1  0
  8  6  1  0
 20 19  1  0
M  RAD  4   3   2   7   2   9   2  21   2
M  END
>  <docking_score>  (3) 
-3.0659999999999998

$$$$
