
     RDKit          3D

 25 24  0  0  0  0  0  0  0  0999 V2000
    2.3104    6.5247    8.1255 N   0  0  0  0  0  0  0  0  0  0  0  0
    3.1386    7.2139    7.4883 C   0  0  0  0  0  0  0  0  0  0  0  0
    4.1357    8.0381    6.7448 C   0  0  0  0  0  0  0  0  0  0  0  0
    4.1171    7.8421    5.4590 C   0  0  0  0  0  0  0  0  0  0  0  0
    5.0411    8.5596    4.5278 C   0  0  0  0  0  0  0  0  0  0  0  0
    4.3383    8.9966    3.3979 C   0  0  0  0  0  0  0  0  0  0  0  0
    2.9971    8.8002    3.1755 C   0  0  0  0  0  3  0  0  0  0  0  0
    2.7093    7.5335    2.4047 C   0  0  0  0  0  0  0  0  0  0  0  0
    5.2575    9.8897    2.5316 C   0  0  0  0  0  3  0  0  0  0  0  0
    5.4883   11.0386    3.3509 O   0  0  0  0  0  0  0  0  0  0  0  0
    5.2571   12.1992    2.6816 C   0  0  2  0  0  0  0  0  0  0  0  0
    5.4787   13.2772    3.6552 O   0  0  0  0  0  0  0  0  0  0  0  0
    4.2003   13.5151    4.1005 N   0  0  0  0  0  0  0  0  0  0  0  0
    4.4492   14.4344    5.2464 C   0  0  0  0  0  0  0  0  0  0  0  0
    5.7265   14.1543    5.9404 C   0  0  0  0  0  3  0  0  0  0  0  0
    6.2538   15.2200    6.7281 C   0  0  0  0  0  0  0  0  0  0  0  0
    7.2308   15.8280    6.9939 N   0  0  0  0  0  0  0  0  0  0  0  0
    8.6026   15.5001    6.3853 C   0  0  0  0  0  0  0  0  0  0  0  0
    8.5727   15.7873    5.0603 N   0  0  0  0  0  3  0  0  0  0  0  0
    8.6779   15.7723    3.9288 C   0  0  0  0  0  0  0  0  0  0  0  0
    9.2437   14.7785    3.0652 O   0  0  0  0  0  0  0  0  0  0  0  0
    9.4644   15.2129    1.7119 C   0  0  0  0  0  0  0  0  0  0  0  0
    3.8030   12.3608    2.2280 C   0  0  0  0  0  0  0  0  0  0  0  0
    6.0595   12.4936    1.6590 N   0  0  0  0  0  4  0  0  0  0  0  0
    6.8499   12.7819    0.6871 C   0  0  0  0  0  0  0  0  0  0  0  0
  1  2  3  0
  2  3  1  0
  3  4  2  3
  4  5  1  0
  5  6  2  3
  6  7  1  0
  7  8  1  0
  6  9  1  0
  9 10  1  0
 10 11  1  0
 11 12  1  0
 12 13  1  0
 13 14  1  0
 14 15  1  0
 15 16  1  0
 16 17  2  3
 17 18  1  0
 18 19  1  0
 19 20  2  3
 20 21  1  0
 21 22  1  0
 11 23  1  6
 11 24  1  0
 24 25  3  0
M  CHG  2  19   1  24   1
M  RAD  4   7   2   9   2  15   2  19   2
M  END
>  <docking_score>  (1) 
-3.2210000000000001

$$$$

     RDKit          3D

 25 24  0  0  0  0  0  0  0  0999 V2000
   20.5858    0.2632   -1.6987 N   0  0  0  0  0  0  0  0  0  0  0  0
   20.4218   -0.6581   -2.5301 C   0  0  0  0  0  0  0  0  0  0  0  0
   20.2393   -1.7484   -3.5324 C   0  0  0  0  0  0  0  0  0  0  0  0
   19.6796   -2.8159   -3.0434 C   0  0  0  0  0  0  0  0  0  0  0  0
   19.4126   -4.0302   -3.8740 C   0  0  0  0  0  0  0  0  0  0  0  0
   19.9951   -3.8827   -5.1391 C   0  0  0  0  0  0  0  0  0  0  0  0
   20.7100   -2.7872   -5.5580 C   0  0  0  0  0  3  0  0  0  0  0  0
   21.3647   -2.9931   -6.9036 C   0  0  0  0  0  0  0  0  0  0  0  0
   19.8699   -5.2104   -5.9231 C   0  0  0  0  0  3  0  0  0  0  0  0
   19.1686   -6.0732   -5.0241 O   0  0  0  0  0  0  0  0  0  0  0  0
   19.6296   -7.3511   -5.0770 C   0  0  2  0  0  0  0  0  0  0  0  0
   18.4484   -8.2125   -4.9296 O   0  0  0  0  0  0  0  0  0  0  0  0
   17.5295   -7.3349   -4.4052 N   0  0  0  0  0  0  0  0  0  0  0  0
   16.3153   -7.6600   -5.2052 C   0  0  0  0  0  0  0  0  0  0  0  0
   15.2231   -6.6788   -5.0159 C   0  0  0  0  0  3  0  0  0  0  0  0
   15.6265   -5.3620   -4.6448 C   0  0  0  0  0  0  0  0  0  0  0  0
   15.8590   -4.2770   -5.0492 N   0  0  0  0  0  0  0  0  0  0  0  0
   15.7849   -3.9143   -6.5401 C   0  0  0  0  0  0  0  0  0  0  0  0
   16.5465   -2.8140   -6.7605 N   0  0  0  0  0  3  0  0  0  0  0  0
   17.1388   -1.8489   -6.6642 C   0  0  0  0  0  0  0  0  0  0  0  0
   17.3782   -1.0203   -5.5199 O   0  0  0  0  0  0  0  0  0  0  0  0
   18.4868   -0.1139   -5.6550 C   0  0  0  0  0  0  0  0  0  0  0  0
   20.5426   -7.7176   -3.9029 C   0  0  0  0  0  0  0  0  0  0  0  0
   20.2059   -7.7541   -6.2091 N   0  0  0  0  0  4  0  0  0  0  0  0
   20.7417   -8.1431   -7.3109 C   0  0  0  0  0  0  0  0  0  0  0  0
  1  2  3  0
  2  3  1  0
  3  4  2  3
  4  5  1  0
  5  6  2  3
  6  7  1  0
  7  8  1  0
  6  9  1  0
  9 10  1  0
 10 11  1  0
 11 12  1  0
 12 13  1  0
 13 14  1  0
 14 15  1  0
 15 16  1  0
 16 17  2  3
 17 18  1  0
 18 19  1  0
 19 20  2  3
 20 21  1  0
 21 22  1  0
 11 23  1  1
 11 24  1  0
 24 25  3  0
M  CHG  2  19   1  24   1
M  RAD  4   7   2   9   2  15   2  19   2
M  END
>  <docking_score>  (2) 
-1.3049999999999999

$$$$

     RDKit          3D

 25 24  0  0  0  0  0  0  0  0999 V2000
   14.0932   -5.9867   -7.5276 N   0  0  0  0  0  0  0  0  0  0  0  0
   15.0482   -6.0028   -6.7185 C   0  0  0  0  0  0  0  0  0  0  0  0
   16.1988   -6.0222   -5.7686 C   0  0  0  0  0  0  0  0  0  0  0  0
   15.8897   -5.6246   -4.5692 C   0  0  0  0  0  0  0  0  0  0  0  0
   16.8959   -5.5580   -3.4653 C   0  0  0  0  0  0  0  0  0  0  0  0
   18.1135   -6.1018   -3.8934 C   0  0  0  0  0  0  0  0  0  0  0  0
   18.3533   -6.6182   -5.1435 C   0  0  0  0  0  3  0  0  0  0  0  0
   19.3368   -7.7645   -5.1262 C   0  0  0  0  0  0  0  0  0  0  0  0
   19.1937   -5.8646   -2.8118 C   0  0  0  0  0  3  0  0  0  0  0  0
   20.2071   -5.1248   -3.4975 O   0  0  0  0  0  0  0  0  0  0  0  0
   20.0522   -3.7826   -3.3455 C   0  0  2  0  0  0  0  0  0  0  0  0
   19.3597   -3.3170   -4.5550 O   0  0  0  0  0  0  0  0  0  0  0  0
   20.2581   -2.4043   -5.0543 N   0  0  0  0  0  0  0  0  0  0  0  0
   19.7224   -2.1773   -6.4259 C   0  0  0  0  0  0  0  0  0  0  0  0
   18.3782   -1.5568   -6.4220 C   0  0  0  0  0  3  0  0  0  0  0  0
   17.2753   -2.4607   -6.3941 C   0  0  0  0  0  0  0  0  0  0  0  0
   16.1079   -2.5593   -6.5438 N   0  0  0  0  0  0  0  0  0  0  0  0
   15.2118   -1.3596   -6.8865 C   0  0  0  0  0  0  0  0  0  0  0  0
   14.5174   -1.0021   -5.7779 N   0  0  0  0  0  3  0  0  0  0  0  0
   14.1388   -0.8572   -4.7162 C   0  0  0  0  0  0  0  0  0  0  0  0
   14.6599   -1.3443   -3.4733 O   0  0  0  0  0  0  0  0  0  0  0  0
   16.0956   -1.3980   -3.4029 C   0  0  0  0  0  0  0  0  0  0  0  0
   21.3781   -3.0160   -3.3219 C   0  0  0  0  0  0  0  0  0  0  0  0
   19.2946   -3.3583   -2.3346 N   0  0  0  0  0  4  0  0  0  0  0  0
   18.5456   -2.9561   -1.3703 C   0  0  0  0  0  0  0  0  0  0  0  0
  1  2  3  0
  2  3  1  0
  3  4  2  3
  4  5  1  0
  5  6  2  3
  6  7  1  0
  7  8  1  0
  6  9  1  0
  9 10  1  0
 10 11  1  0
 11 12  1  0
 12 13  1  0
 13 14  1  0
 14 15  1  0
 15 16  1  0
 16 17  2  3
 17 18  1  0
 18 19  1  0
 19 20  2  3
 20 21  1  0
 21 22  1  0
 11 23  1  1
 11 24  1  0
 24 25  3  0
M  CHG  2  19   1  24   1
M  RAD  4   7   2   9   2  15   2  19   2
M  END
>  <docking_score>  (3) 
-1.236

$$$$
