
     RDKit          3D

 27 29  0  0  0  0  0  0  0  0999 V2000
   13.9532   -0.8071   -5.3278 N   0  0  0  0  0  0  0  0  0  0  0  0
   15.2855   -1.1354   -5.7370 C   0  0  0  0  0  0  0  0  0  0  0  0
   16.3162   -0.4973   -5.3465 N   0  0  0  0  0  0  0  0  0  0  0  0
   17.6567   -0.7426   -5.6912 C   0  0  1  0  0  0  0  0  0  0  0  0
   18.6258   -0.8076   -4.1833 Cl  0  0  0  0  0  0  0  0  0  0  0  0
   17.9618   -1.8520   -6.5979 C   0  0  0  0  0  0  0  0  0  0  0  0
   16.7869   -2.5876   -7.0535 C   0  0  0  0  0  0  0  0  0  0  0  0
   15.5101   -2.2574   -6.6505 C   0  0  0  0  0  0  0  0  0  0  0  0
   14.6929   -3.1332   -7.2560 N   0  0  0  0  0  0  0  0  0  0  0  0
   15.3942   -3.9703   -7.9981 N   0  0  0  0  0  0  0  0  0  0  0  0
   16.6980   -3.6837   -7.9143 C   0  0  0  0  0  0  0  0  0  0  0  0
   17.7933   -4.3966   -8.6054 C   0  0  0  0  0  3  0  0  0  0  0  0
   17.6471   -5.7468   -8.7029 O   0  0  0  0  0  0  0  0  0  0  0  0
   18.2083   -6.4942   -7.6773 C   0  0  2  0  0  0  0  0  0  0  0  0
   17.1234   -7.0735   -6.7909 C   0  0  0  0  0  0  0  0  0  0  0  0
   16.9891   -6.1745   -5.2287 S   0  0  0  0  0  0  0  0  0  0  0  0
   17.9808   -6.8764   -3.9222 C   0  0  0  0  0  0  0  0  0  0  0  0
   18.5760   -5.8896   -2.9833 C   0  0  0  0  0  0  0  0  0  0  0  0
   18.4699   -4.4642   -3.4452 C   0  0  2  0  0  0  0  0  0  0  0  0
   19.7138   -3.7827   -3.5832 N   0  0  0  0  0  0  0  0  0  0  0  0
   17.4317   -3.7280   -2.7013 C   0  0  0  0  0  0  0  0  0  0  0  0
   16.4062   -3.2851   -3.2707 O   0  0  0  0  0  0  0  0  0  0  0  0
   17.6033   -3.5213   -1.3199 N   0  0  0  0  0  0  0  0  0  0  0  0
   19.2013   -5.6829   -6.8713 C   0  0  1  0  0  0  0  0  0  0  0  0
   20.4450   -6.2374   -6.5962 O   0  0  0  0  0  0  0  0  0  0  0  0
   20.4638   -5.2836   -7.6075 C   0  0  2  0  0  0  0  0  0  0  0  0
   21.0137   -3.6376   -7.2161 Cl  0  0  0  0  0  0  0  0  0  0  0  0
  1  2  1  0
  2  3  2  0
  3  4  1  0
  4  5  1  1
  4  6  1  0
  6  7  1  0
  7  8  2  0
  8  9  1  0
  9 10  1  0
 10 11  2  0
 11 12  1  0
 12 13  1  0
 13 14  1  0
 14 15  1  1
 15 16  1  0
 16 17  1  0
 17 18  1  0
 18 19  1  0
 19 20  1  1
 19 21  1  0
 21 22  2  0
 21 23  1  0
 14 24  1  0
 24 25  1  1
 24 26  1  0
 26 27  1  1
  8  2  1  0
 11  7  1  0
 26 25  1  0
M  RAD  1  12   2
M  END
>  <docking_score>  (1) 
-2.8069999999999999

$$$$

     RDKit          3D

 27 29  0  0  0  0  0  0  0  0999 V2000
    3.7992    9.4452    9.9352 N   0  0  0  0  0  0  0  0  0  0  0  0
    4.2832   10.7095    9.4685 C   0  0  0  0  0  0  0  0  0  0  0  0
    4.4551   11.7178   10.2273 N   0  0  0  0  0  0  0  0  0  0  0  0
    4.9226   12.9929    9.8641 C   0  0  1  0  0  0  0  0  0  0  0  0
    6.2400   13.4542   10.9905 Cl  0  0  0  0  0  0  0  0  0  0  0  0
    5.2724   13.2452    8.4642 C   0  0  0  0  0  0  0  0  0  0  0  0
    5.0760   12.0966    7.5861 C   0  0  0  0  0  0  0  0  0  0  0  0
    4.6077   10.8860    8.0518 C   0  0  0  0  0  0  0  0  0  0  0  0
    4.5539   10.0746    6.9839 N   0  0  0  0  0  0  0  0  0  0  0  0
    4.9594   10.7175    5.9044 N   0  0  0  0  0  0  0  0  0  0  0  0
    5.2965   11.9747    6.2124 C   0  0  0  0  0  0  0  0  0  0  0  0
    5.7929   12.9998    5.2701 C   0  0  0  0  0  3  0  0  0  0  0  0
    6.7128   13.8673    5.7754 O   0  0  0  0  0  0  0  0  0  0  0  0
    7.4024   14.6315    4.8448 C   0  0  2  0  0  0  0  0  0  0  0  0
    6.6087   14.7399    3.5577 C   0  0  0  0  0  0  0  0  0  0  0  0
    7.6027   14.2757    2.1213 S   0  0  0  0  0  0  0  0  0  0  0  0
    6.6986   13.3211    0.9153 C   0  0  0  0  0  0  0  0  0  0  0  0
    6.8630   11.8480    1.0259 C   0  0  0  0  0  0  0  0  0  0  0  0
    5.6448   11.1329    1.5370 C   0  0  2  0  0  0  0  0  0  0  0  0
    4.4997   11.9588    1.7301 N   0  0  0  0  0  0  0  0  0  0  0  0
    5.9714   10.2416    2.6649 C   0  0  0  0  0  0  0  0  0  0  0  0
    6.9729   10.4431    3.3917 O   0  0  0  0  0  0  0  0  0  0  0  0
    5.1344    9.1405    2.9252 N   0  0  0  0  0  0  0  0  0  0  0  0
    8.7914   14.0847    4.5893 C   0  0  1  0  0  0  0  0  0  0  0  0
    9.3928   14.3438    3.3641 O   0  0  0  0  0  0  0  0  0  0  0  0
    9.8764   15.1263    4.4065 C   0  0  2  0  0  0  0  0  0  0  0  0
   11.4195   14.6732    5.1671 Cl  0  0  0  0  0  0  0  0  0  0  0  0
  1  2  1  0
  2  3  2  0
  3  4  1  0
  4  5  1  1
  4  6  1  0
  6  7  1  0
  7  8  2  0
  8  9  1  0
  9 10  1  0
 10 11  2  0
 11 12  1  0
 12 13  1  0
 13 14  1  0
 14 15  1  6
 15 16  1  0
 16 17  1  0
 17 18  1  0
 18 19  1  0
 19 20  1  1
 19 21  1  0
 21 22  2  0
 21 23  1  0
 14 24  1  0
 24 25  1  6
 24 26  1  0
 26 27  1  1
  8  2  1  0
 11  7  1  0
 26 25  1  0
M  RAD  1  12   2
M  END
>  <docking_score>  (2) 
-1.837

$$$$

     RDKit          3D

 27 29  0  0  0  0  0  0  0  0999 V2000
    2.2577   13.0440    4.8135 N   0  0  0  0  0  0  0  0  0  0  0  0
    3.4838   13.7228    4.5195 C   0  0  0  0  0  0  0  0  0  0  0  0
    3.9082   14.7230    5.1839 N   0  0  0  0  0  0  0  0  0  0  0  0
    5.0918   15.4513    4.9727 C   0  0  1  0  0  0  0  0  0  0  0  0
    5.9571   15.5906    6.5376 Cl  0  0  0  0  0  0  0  0  0  0  0  0
    5.9805   15.0539    3.8780 C   0  0  0  0  0  0  0  0  0  0  0  0
    5.5013   13.9104    3.1087 C   0  0  0  0  0  0  0  0  0  0  0  0
    4.3171   13.2687    3.4046 C   0  0  0  0  0  0  0  0  0  0  0  0
    4.1979   12.2792    2.5055 N   0  0  0  0  0  0  0  0  0  0  0  0
    5.2335   12.2827    1.6866 N   0  0  0  0  0  0  0  0  0  0  0  0
    6.0763   13.2700    2.0088 C   0  0  0  0  0  0  0  0  0  0  0  0
    7.3443   13.5930    1.3209 C   0  0  0  0  0  3  0  0  0  0  0  0
    8.3543   14.0295    2.1230 O   0  0  0  0  0  0  0  0  0  0  0  0
    8.8793   13.0933    3.0025 C   0  0  2  0  0  0  0  0  0  0  0  0
    8.0375   11.8324    2.9966 C   0  0  0  0  0  0  0  0  0  0  0  0
    7.9232   11.1004    4.6452 S   0  0  0  0  0  0  0  0  0  0  0  0
    6.3859   11.4637    5.4744 C   0  0  0  0  0  0  0  0  0  0  0  0
    5.5516   10.2781    5.8029 C   0  0  0  0  0  0  0  0  0  0  0  0
    4.6734    9.8163    4.6751 C   0  0  2  0  0  0  0  0  0  0  0  0
    3.2737    9.9199    4.9219 N   0  0  0  0  0  0  0  0  0  0  0  0
    5.1197    8.5192    4.1352 C   0  0  0  0  0  0  0  0  0  0  0  0
    5.6821    7.6651    4.8606 O   0  0  0  0  0  0  0  0  0  0  0  0
    4.9059    8.2407    2.7723 N   0  0  0  0  0  0  0  0  0  0  0  0
    9.0175   13.6550    4.4022 C   0  0  1  0  0  0  0  0  0  0  0  0
   10.2476   13.5555    5.0400 O   0  0  0  0  0  0  0  0  0  0  0  0
    9.9714   14.8238    4.5420 C   0  0  2  0  0  0  0  0  0  0  0  0
    9.3904   16.0731    5.6676 Cl  0  0  0  0  0  0  0  0  0  0  0  0
  1  2  1  0
  2  3  2  0
  3  4  1  0
  4  5  1  1
  4  6  1  0
  6  7  1  0
  7  8  2  0
  8  9  1  0
  9 10  1  0
 10 11  2  0
 11 12  1  0
 12 13  1  0
 13 14  1  0
 14 15  1  1
 15 16  1  0
 16 17  1  0
 17 18  1  0
 18 19  1  0
 19 20  1  1
 19 21  1  0
 21 22  2  0
 21 23  1  0
 14 24  1  0
 24 25  1  1
 24 26  1  0
 26 27  1  1
  8  2  1  0
 11  7  1  0
 26 25  1  0
M  RAD  1  12   2
M  END
>  <docking_score>  (3) 
-1.655

$$$$
