
     RDKit          3D

 52 60  0  0  0  0  0  0  0  0999 V2000
    5.2450   10.7367    9.4220 C   0  0  0  0  0  0  0  0  0  0  0  0
    5.8342   10.3756   10.7307 C   0  0  0  0  0  2  0  0  0  0  0  0
    5.5699   11.4247   11.7818 C   0  0  0  0  0  0  0  0  0  0  0  0
    6.5871   12.5219   11.8341 C   0  0  2  0  0  0  0  0  0  0  0  0
    7.3336   12.6025   13.1146 C   0  0  0  0  0  3  0  0  0  0  0  0
    6.5082   13.3975   14.0885 C   0  0  0  0  0  0  0  0  0  0  0  0
    6.3000   13.0140   15.3780 C   0  0  0  0  0  0  0  0  0  0  0  0
    5.5266   13.8055   16.2111 C   0  0  0  0  0  0  0  0  0  0  0  0
    4.9623   14.9797   15.7535 C   0  0  0  0  0  0  0  0  0  0  0  0
    4.1864   15.7887   16.5629 O   0  0  0  0  0  0  0  0  0  0  0  0
    5.1893   15.3385   14.4533 C   0  0  0  0  0  0  0  0  0  0  0  0
    5.9510   14.5637   13.6242 C   0  0  0  0  0  0  0  0  0  0  0  0
    6.1817   14.9586   12.2445 C   0  0  2  0  0  0  0  0  0  0  0  0
    5.3066   16.0347   11.8685 N   0  0  0  0  0  0  0  0  0  0  0  0
    3.9407   15.5583   11.9134 C   0  0  0  0  0  0  0  0  0  0  0  0
    6.1253   13.8280   11.2614 C   0  0  1  0  0  0  0  0  0  0  0  0
    6.8916   14.2609   10.0314 C   0  0  0  0  0  0  0  0  0  0  0  0
    6.0211   15.1674    9.2471 C   0  0  0  0  0  0  0  0  0  0  0  0
    4.9416   14.8369    8.5801 C   0  0  0  0  0  3  0  0  0  0  0  0
    4.7045   13.5906   10.7943 C   0  0  0  0  0  0  0  0  0  0  0  0
    3.7947   14.5316   10.8641 C   0  0  0  0  0  0  0  0  0  0  0  0
    2.6621   14.5542    9.9120 C   0  0  0  0  0  3  0  0  0  0  0  0
    2.5327   15.7902    9.2779 O   0  0  0  0  0  0  0  0  0  0  0  0
    2.8774   13.4862    8.8392 C   0  0  0  0  0  3  0  0  0  0  0  0
    4.3429   13.5081    8.4510 C   0  0  0  0  0  3  0  0  0  0  0  0
    4.5634   12.8597    7.1004 C   0  0  0  0  0  3  0  0  0  0  0  0
    5.6391   11.8452    7.2213 C   0  0  0  0  0  3  0  0  0  0  0  0
    5.9671   11.3793    8.5516 C   0  0  0  0  0  0  0  0  0  0  0  0
    5.6401   10.7452    6.2297 C   0  0  0  0  0  3  0  0  0  0  0  0
    5.3425   11.1280    4.8232 C   0  0  2  0  0  0  0  0  0  0  0  0
    3.9176   11.5284    4.5846 C   0  0  0  0  0  0  0  0  0  0  0  0
    5.7355    9.9246    3.9452 C   0  0  2  0  0  0  0  0  0  0  0  0
    7.1829   10.2356    3.6000 C   0  0  1  0  0  0  0  0  0  0  0  0
    7.3554   10.7751    2.2168 C   0  0  0  0  0  2  0  0  0  0  0  0
    7.5328   11.3046    4.4674 O   0  0  0  0  0  0  0  0  0  0  0  0
    6.3590   12.0442    4.3082 C   0  0  2  0  0  0  0  0  0  0  0  0
    6.3927   13.4453    4.6391 C   0  0  0  0  0  3  0  0  0  0  0  0
    6.9189   14.1446    3.3699 C   0  0  0  0  0  2  0  0  0  0  0  0
    7.6974   13.1978    2.5520 N   0  0  0  0  0  0  0  0  0  0  0  0
    6.8908   12.1615    1.9975 C   0  0  0  0  0  3  0  0  0  0  0  0
    4.8644    9.8350    2.7138 C   0  0  0  0  0  3  0  0  0  0  0  0
    4.9678    8.3300    2.4286 C   0  0  0  0  0  3  0  0  0  0  0  0
    3.9037    7.9024    1.6414 O   0  0  0  0  0  0  0  0  0  0  0  0
    4.9497    7.7551    3.6708 O   0  0  0  0  0  0  0  0  0  0  0  0
    5.5250    8.6182    4.5915 C   0  0  2  0  0  0  0  0  0  0  0  0
    4.6050    8.6490    5.7943 C   0  0  0  0  0  2  0  0  0  0  0  0
    4.9936    7.6144    6.7995 C   0  0  0  0  0  0  0  0  0  0  0  0
    3.8078    6.9124    7.4050 C   0  0  0  0  0  0  0  0  0  0  0  0
    2.9420    7.9085    7.9712 O   0  0  0  0  0  0  0  0  0  0  0  0
    2.8780    9.1419    7.3472 C   0  0  0  0  0  0  0  0  0  0  0  0
    3.3171   10.2626    7.8744 C   0  0  0  0  0  0  0  0  0  0  0  0
    3.9165   10.3766    9.1494 N   0  0  0  0  0  0  0  0  0  0  0  0
  1  2  1  0
  2  3  1  0
  4  3  1  1
  4  5  1  0
  5  6  1  0
  6  7  2  0
  7  8  1  0
  8  9  2  0
  9 10  1  0
  9 11  1  0
 11 12  2  0
 12 13  1  0
 13 14  1  6
 14 15  1  0
 13 16  1  0
 16 17  1  6
 17 18  1  0
 18 19  2  3
 16 20  1  0
 20 21  2  0
 21 22  1  0
 22 23  1  0
 22 24  1  0
 24 25  1  0
 25 26  1  0
 26 27  1  0
 27 28  1  0
 27 29  1  0
 29 30  1  0
 30 31  1  1
 30 32  1  0
 32 33  1  0
 33 34  1  6
 33 35  1  0
 35 36  1  0
 36 37  1  1
 37 38  1  0
 38 39  1  0
 39 40  1  0
 32 41  1  6
 41 42  1  0
 42 43  1  0
 42 44  1  0
 44 45  1  0
 45 46  1  1
 46 47  1  0
 47 48  1  0
 48 49  1  0
 49 50  1  0
 50 51  2  3
 51 52  1  0
  1 28  2  3
 52  1  1  0
 16  4  1  0
 12  6  1  0
 21 15  1  0
 25 19  1  0
 36 30  1  0
 45 32  1  0
 40 34  1  0
M  RAD  8   2   3   5   2  19   2  22   2  24   2  25   2  26   2  27   2
M  RAD  8  29   2  34   3  37   2  38   3  40   2  41   2  42   2  46   3
M  END
>  <docking_score>  (1) 
4.327

$$$$
