
     RDKit          3D

 23 25  0  0  0  0  0  0  0  0999 V2000
    2.4941    9.7731    6.2526 O   0  0  0  0  0  0  0  0  0  0  0  0
    3.7342    9.6023    6.1431 C   0  0  0  0  0  0  0  0  0  0  0  0
    4.4202    9.0065    7.2302 N   0  0  0  0  0  0  0  0  0  0  0  0
    3.6618    8.6223    8.4206 C   0  0  0  0  0  0  0  0  0  0  0  0
    4.2666    9.2808    9.6350 C   0  0  0  0  0  0  0  0  0  0  0  0
    4.7637    8.4747   10.6233 C   0  0  0  0  0  0  0  0  0  0  0  0
    5.3267    9.0025   11.7509 C   0  0  0  0  0  0  0  0  0  0  0  0
    5.3915   10.3779   11.8882 C   0  0  0  0  0  0  0  0  0  0  0  0
    6.1227   10.9953   13.3577 Cl  0  0  0  0  0  0  0  0  0  0  0  0
    4.8905   11.1796   10.8902 C   0  0  0  0  0  0  0  0  0  0  0  0
    4.3141   10.6534    9.7358 C   0  0  0  0  0  0  0  0  0  0  0  0
    4.4542   10.0110    4.9186 C   0  0  0  0  0  0  0  0  0  0  0  0
    4.9245   11.2382    4.7956 C   0  0  0  0  0  0  0  0  0  0  0  0
    5.6292   11.6629    3.6139 N   0  0  0  0  0  0  0  0  0  0  0  0
    6.1299   13.0068    3.5074 C   0  0  0  0  0  0  0  0  0  0  0  0
    6.8256   13.3251    2.2680 C   0  0  0  0  0  0  0  0  0  0  0  0
    7.5014   14.9509    1.9929 Cl  0  0  0  0  0  0  0  0  0  0  0  0
    6.9563   12.3982    1.3397 C   0  0  0  0  0  0  0  0  0  0  0  0
    6.4331   11.0622    1.4988 C   0  0  0  0  0  0  0  0  0  0  0  0
    5.7912   10.6964    2.5919 C   0  0  0  0  0  0  0  0  0  0  0  0
    5.2634    9.3222    2.7330 C   0  0  0  0  0  0  0  0  0  0  0  0
    4.6295    9.0284    3.8584 C   0  0  0  0  0  0  0  0  0  0  0  0
    4.0888    7.7177    4.0762 N   0  0  0  0  0  0  0  0  0  0  0  0
  1  2  2  0
  2  3  1  0
  3  4  1  0
  4  5  1  0
  5  6  2  0
  6  7  1  0
  7  8  2  0
  8  9  1  0
  8 10  1  0
 10 11  2  0
  2 12  1  0
 12 13  2  0
 13 14  1  0
 14 15  1  0
 15 16  1  0
 16 17  1  0
 16 18  2  0
 18 19  1  0
 19 20  2  0
 20 21  1  0
 21 22  2  0
 22 23  1  0
 11  5  1  0
 22 12  1  0
 20 14  1  0
M  END
>  <docking_score>  (1) 
-5.0730000000000004

$$$$

     RDKit          3D

 23 25  0  0  0  0  0  0  0  0999 V2000
    3.4589   12.4073    4.4166 O   0  0  0  0  0  0  0  0  0  0  0  0
    4.3557   11.5588    4.6507 C   0  0  0  0  0  0  0  0  0  0  0  0
    5.5980   12.0263    5.1461 N   0  0  0  0  0  0  0  0  0  0  0  0
    5.7801   13.4620    5.3589 C   0  0  0  0  0  0  0  0  0  0  0  0
    6.6381   14.0280    4.2554 C   0  0  0  0  0  0  0  0  0  0  0  0
    7.5175   15.0277    4.5729 C   0  0  0  0  0  0  0  0  0  0  0  0
    8.3265   15.5866    3.6240 C   0  0  0  0  0  0  0  0  0  0  0  0
    8.2489   15.1275    2.3209 C   0  0  0  0  0  0  0  0  0  0  0  0
    9.3101   15.8850    1.1482 Cl  0  0  0  0  0  0  0  0  0  0  0  0
    7.3634   14.1226    2.0115 C   0  0  0  0  0  0  0  0  0  0  0  0
    6.5333   13.5449    2.9701 C   0  0  0  0  0  0  0  0  0  0  0  0
    4.1214   10.1184    4.4159 C   0  0  0  0  0  0  0  0  0  0  0  0
    3.7930    9.3210    5.4153 C   0  0  0  0  0  0  0  0  0  0  0  0
    3.5594    7.9144    5.2148 N   0  0  0  0  0  0  0  0  0  0  0  0
    3.2036    7.0695    6.3228 C   0  0  0  0  0  0  0  0  0  0  0  0
    2.9920    5.6644    6.0030 C   0  0  0  0  0  0  0  0  0  0  0  0
    2.5457    4.4970    7.2733 Cl  0  0  0  0  0  0  0  0  0  0  0  0
    3.1324    5.2529    4.7584 C   0  0  0  0  0  0  0  0  0  0  0  0
    3.4919    6.1458    3.6825 C   0  0  0  0  0  0  0  0  0  0  0  0
    3.7001    7.4317    3.8911 C   0  0  0  0  0  0  0  0  0  0  0  0
    4.0679    8.3278    2.7736 C   0  0  0  0  0  0  0  0  0  0  0  0
    4.2618    9.6065    3.0600 C   0  0  0  0  0  0  0  0  0  0  0  0
    4.6190   10.5430    2.0337 N   0  0  0  0  0  0  0  0  0  0  0  0
  1  2  2  0
  2  3  1  0
  3  4  1  0
  4  5  1  0
  5  6  2  0
  6  7  1  0
  7  8  2  0
  8  9  1  0
  8 10  1  0
 10 11  2  0
  2 12  1  0
 12 13  2  0
 13 14  1  0
 14 15  1  0
 15 16  1  0
 16 17  1  0
 16 18  2  0
 18 19  1  0
 19 20  2  0
 20 21  1  0
 21 22  2  0
 22 23  1  0
 11  5  1  0
 22 12  1  0
 20 14  1  0
M  END
>  <docking_score>  (2) 
-4.6909999999999998

$$$$

     RDKit          3D

 23 25  0  0  0  0  0  0  0  0999 V2000
    4.1625   11.5739    2.6952 O   0  0  0  0  0  0  0  0  0  0  0  0
    5.1680   11.3093    3.4008 C   0  0  0  0  0  0  0  0  0  0  0  0
    5.5695    9.9544    3.5016 N   0  0  0  0  0  0  0  0  0  0  0  0
    4.8019    8.9337    2.7883 C   0  0  0  0  0  0  0  0  0  0  0  0
    4.3504    7.8740    3.7615 C   0  0  0  0  0  0  0  0  0  0  0  0
    4.2597    8.2125    5.0847 C   0  0  0  0  0  0  0  0  0  0  0  0
    3.8566    7.3035    6.0219 C   0  0  0  0  0  0  0  0  0  0  0  0
    3.5363    6.0195    5.6174 C   0  0  0  0  0  0  0  0  0  0  0  0
    3.0282    4.8977    6.8658 Cl  0  0  0  0  0  0  0  0  0  0  0  0
    3.6296    5.6887    4.2863 C   0  0  0  0  0  0  0  0  0  0  0  0
    4.0392    6.6067    3.3214 C   0  0  0  0  0  0  0  0  0  0  0  0
    5.9078   12.3785    4.1038 C   0  0  0  0  0  0  0  0  0  0  0  0
    5.6788   12.6243    5.3804 C   0  0  0  0  0  0  0  0  0  0  0  0
    6.3849   13.6596    6.0895 N   0  0  0  0  0  0  0  0  0  0  0  0
    6.1139   13.9055    7.4803 C   0  0  0  0  0  0  0  0  0  0  0  0
    6.8864   14.9768    8.0943 C   0  0  0  0  0  0  0  0  0  0  0  0
    6.6598   15.3961    9.8114 Cl  0  0  0  0  0  0  0  0  0  0  0  0
    7.7634   15.6432    7.3698 C   0  0  0  0  0  0  0  0  0  0  0  0
    7.9959   15.3544    5.9747 C   0  0  0  0  0  0  0  0  0  0  0  0
    7.3367   14.3995    5.3468 C   0  0  0  0  0  0  0  0  0  0  0  0
    7.5911   14.1215    3.9168 C   0  0  0  0  0  0  0  0  0  0  0  0
    6.8904   13.1482    3.3540 C   0  0  0  0  0  0  0  0  0  0  0  0
    7.0777   12.8130    1.9719 N   0  0  0  0  0  0  0  0  0  0  0  0
  1  2  2  0
  2  3  1  0
  3  4  1  0
  4  5  1  0
  5  6  2  0
  6  7  1  0
  7  8  2  0
  8  9  1  0
  8 10  1  0
 10 11  2  0
  2 12  1  0
 12 13  2  0
 13 14  1  0
 14 15  1  0
 15 16  1  0
 16 17  1  0
 16 18  2  0
 18 19  1  0
 19 20  2  0
 20 21  1  0
 21 22  2  0
 22 23  1  0
 11  5  1  0
 22 12  1  0
 20 14  1  0
M  END
>  <docking_score>  (3) 
-4.4139999999999997

$$$$
