
     RDKit          3D

 25 26  0  0  0  0  0  0  0  0999 V2000
   19.4840   -8.0364   -3.7310 C   0  0  0  0  0  0  0  0  0  0  0  0
   19.8248   -6.7611   -4.4504 C   0  0  0  0  0  3  0  0  0  0  0  0
   19.1721   -6.6886   -5.8262 C   0  0  2  0  0  0  0  0  0  0  0  0
   20.3221   -6.5139   -6.8120 C   0  0  2  0  0  0  0  0  0  0  0  0
   21.1111   -7.6474   -6.8666 O   0  0  0  0  0  0  0  0  0  0  0  0
   21.1817   -5.3881   -6.2872 C   0  0  0  0  0  0  0  0  0  0  0  0
   20.9146   -4.1745   -6.8936 O   0  0  0  0  0  0  0  0  0  0  0  0
   19.6803   -3.6436   -6.5543 C   0  0  0  0  0  3  0  0  0  0  0  0
   18.6271   -4.5913   -7.0771 C   0  0  1  0  0  0  0  0  0  0  0  0
   19.0519   -5.2581   -8.2114 O   0  0  0  0  0  0  0  0  0  0  0  0
   18.2476   -5.5107   -5.9494 C   0  0  1  0  0  0  0  0  0  0  0  0
   16.8639   -5.8988   -6.1579 N   0  0  0  0  0  0  0  0  0  0  0  0
   16.0989   -5.3222   -5.0566 C   0  0  1  0  0  0  0  0  0  0  0  0
   16.9756   -4.5907   -4.0753 C   0  0  0  0  0  0  0  0  0  0  0  0
   16.0674   -3.8919   -3.0874 C   0  0  0  0  0  3  0  0  0  0  0  0
   16.4708   -4.1315   -1.7795 O   0  0  0  0  0  0  0  0  0  0  0  0
   15.9911   -2.4116   -3.3443 C   0  0  1  0  0  0  0  0  0  0  0  0
   17.2642   -1.8506   -3.4450 O   0  0  0  0  0  0  0  0  0  0  0  0
   15.1485   -2.1012   -4.5752 C   0  0  1  0  0  0  0  0  0  0  0  0
   15.4100   -0.7858   -4.9574 O   0  0  0  0  0  0  0  0  0  0  0  0
   15.5591   -3.0100   -5.7255 C   0  0  2  0  0  0  0  0  0  0  0  0
   15.1516   -2.4365   -6.9325 O   0  0  0  0  0  0  0  0  0  0  0  0
   15.0204   -4.3901   -5.5382 C   0  0  1  0  0  0  0  0  0  0  0  0
   14.4384   -4.8305   -6.7141 O   0  0  0  0  0  0  0  0  0  0  0  0
   13.2058   -5.3274   -6.4553 N   0  0  0  0  0  0  0  0  0  0  0  0
  1  2  1  0
  3  2  1  1
  3  4  1  0
  4  5  1  1
  4  6  1  0
  6  7  1  0
  7  8  1  0
  8  9  1  0
  9 10  1  6
  9 11  1  0
 11 12  1  6
 13 12  1  6
 13 14  1  0
 14 15  1  0
 15 16  1  0
 15 17  1  0
 17 18  1  6
 17 19  1  0
 19 20  1  6
 19 21  1  0
 21 22  1  6
 21 23  1  0
 23 24  1  6
 24 25  1  0
 11  3  1  0
 23 13  1  0
M  RAD  3   2   2   8   2  15   2
M  END
>  <docking_score>  (1) 
-4.1760000000000002

$$$$

     RDKit          3D

 25 26  0  0  0  0  0  0  0  0999 V2000
    6.0025   10.1054    1.4260 C   0  0  0  0  0  0  0  0  0  0  0  0
    6.4390   11.3083    2.2150 C   0  0  0  0  0  3  0  0  0  0  0  0
    5.5893   11.5118    3.4643 C   0  0  2  0  0  0  0  0  0  0  0  0
    4.9672   12.8953    3.3108 C   0  0  2  0  0  0  0  0  0  0  0  0
    4.0579   12.9224    2.2702 O   0  0  0  0  0  0  0  0  0  0  0  0
    6.0888   13.8433    2.9575 C   0  0  0  0  0  0  0  0  0  0  0  0
    6.5699   14.5440    4.0482 O   0  0  0  0  0  0  0  0  0  0  0  0
    7.2657   13.7565    4.9516 C   0  0  0  0  0  3  0  0  0  0  0  0
    6.2868   12.7567    5.5197 C   0  0  1  0  0  0  0  0  0  0  0  0
    4.9984   13.2579    5.5505 O   0  0  0  0  0  0  0  0  0  0  0  0
    6.4175   11.4914    4.7178 C   0  0  1  0  0  0  0  0  0  0  0  0
    6.0807   10.3872    5.5986 N   0  0  0  0  0  0  0  0  0  0  0  0
    4.8450    9.8053    5.0836 C   0  0  1  0  0  0  0  0  0  0  0  0
    5.0745    8.4711    4.4250 C   0  0  0  0  0  0  0  0  0  0  0  0
    3.7181    7.8884    4.0936 C   0  0  0  0  0  3  0  0  0  0  0  0
    3.6752    7.4331    2.7815 O   0  0  0  0  0  0  0  0  0  0  0  0
    3.3353    6.7831    5.0395 C   0  0  1  0  0  0  0  0  0  0  0  0
    4.3531    5.8354    5.1466 O   0  0  0  0  0  0  0  0  0  0  0  0
    2.9392    7.3294    6.4056 C   0  0  1  0  0  0  0  0  0  0  0  0
    2.9480    6.2708    7.3134 O   0  0  0  0  0  0  0  0  0  0  0  0
    3.9676    8.3505    6.8721 C   0  0  2  0  0  0  0  0  0  0  0  0
    3.8789    8.4916    8.2592 O   0  0  0  0  0  0  0  0  0  0  0  0
    3.7991    9.6489    6.1540 C   0  0  1  0  0  0  0  0  0  0  0  0
    3.8222   10.6937    7.0613 O   0  0  0  0  0  0  0  0  0  0  0  0
    2.6151   11.3065    7.0829 N   0  0  0  0  0  0  0  0  0  0  0  0
  1  2  1  0
  3  2  1  6
  3  4  1  0
  4  5  1  6
  4  6  1  0
  6  7  1  0
  7  8  1  0
  8  9  1  0
  9 10  1  6
  9 11  1  0
 11 12  1  1
 13 12  1  1
 13 14  1  0
 14 15  1  0
 15 16  1  0
 15 17  1  0
 17 18  1  1
 17 19  1  0
 19 20  1  1
 19 21  1  0
 21 22  1  1
 21 23  1  0
 23 24  1  1
 24 25  1  0
 11  3  1  0
 23 13  1  0
M  RAD  3   2   2   8   2  15   2
M  END
>  <docking_score>  (2) 
-4.1120000000000001

$$$$

     RDKit          3D

 25 26  0  0  0  0  0  0  0  0999 V2000
   18.2162   -2.3409   -8.7400 C   0  0  0  0  0  0  0  0  0  0  0  0
   17.5262   -2.1719   -7.4151 C   0  0  0  0  0  3  0  0  0  0  0  0
   16.4419   -3.2211   -7.1971 C   0  0  2  0  0  0  0  0  0  0  0  0
   15.1360   -2.4403   -7.0979 C   0  0  2  0  0  0  0  0  0  0  0  0
   14.8092   -1.8562   -8.3072 O   0  0  0  0  0  0  0  0  0  0  0  0
   15.3661   -1.3264   -6.1040 C   0  0  0  0  0  0  0  0  0  0  0  0
   14.8987   -1.6252   -4.8374 O   0  0  0  0  0  0  0  0  0  0  0  0
   15.6318   -2.6084   -4.1923 C   0  0  0  0  0  3  0  0  0  0  0  0
   15.4697   -3.8815   -4.9881 C   0  0  1  0  0  0  0  0  0  0  0  0
   14.2492   -3.9319   -5.6360 O   0  0  0  0  0  0  0  0  0  0  0  0
   16.6460   -3.9845   -5.9191 C   0  0  1  0  0  0  0  0  0  0  0  0
   16.8972   -5.3976   -6.1401 N   0  0  0  0  0  0  0  0  0  0  0  0
   18.3425   -5.5468   -6.2802 C   0  0  1  0  0  0  0  0  0  0  0  0
   19.0932   -4.9315   -5.1293 C   0  0  0  0  0  0  0  0  0  0  0  0
   20.5521   -5.2991   -5.2896 C   0  0  0  0  0  3  0  0  0  0  0  0
   21.3685   -4.1837   -5.1484 O   0  0  0  0  0  0  0  0  0  0  0  0
   20.9698   -6.3740   -4.3237 C   0  0  1  0  0  0  0  0  0  0  0  0
   20.6032   -6.0492   -3.0177 O   0  0  0  0  0  0  0  0  0  0  0  0
   20.4216   -7.7356   -4.7320 C   0  0  1  0  0  0  0  0  0  0  0  0
   20.5343   -8.5928   -3.6378 O   0  0  0  0  0  0  0  0  0  0  0  0
   18.9439   -7.6154   -5.0782 C   0  0  2  0  0  0  0  0  0  0  0  0
   18.3470   -8.8755   -4.9902 O   0  0  0  0  0  0  0  0  0  0  0  0
   18.7560   -6.9868   -6.4197 C   0  0  1  0  0  0  0  0  0  0  0  0
   17.8449   -7.7210   -7.1587 O   0  0  0  0  0  0  0  0  0  0  0  0
   18.1901   -7.6926   -8.4676 N   0  0  0  0  0  0  0  0  0  0  0  0
  1  2  1  0
  3  2  1  1
  3  4  1  0
  4  5  1  6
  4  6  1  0
  6  7  1  0
  7  8  1  0
  8  9  1  0
  9 10  1  6
  9 11  1  0
 11 12  1  6
 13 12  1  1
 13 14  1  0
 14 15  1  0
 15 16  1  0
 15 17  1  0
 17 18  1  1
 17 19  1  0
 19 20  1  1
 19 21  1  0
 21 22  1  6
 21 23  1  0
 23 24  1  1
 24 25  1  0
 11  3  1  0
 23 13  1  0
M  RAD  3   2   2   8   2  15   2
M  END
>  <docking_score>  (3) 
-4.0919999999999996

$$$$
