
     RDKit          3D

 14 14  0  0  0  0  0  0  0  0999 V2000
    3.3609   -4.5281   -8.2228 N   0  0  0  0  0  0  0  0  0  0  0  0
    4.8025   -4.4556   -8.1089 C   0  0  1  0  0  0  0  0  0  0  0  0
    5.1299   -4.1183   -6.6702 C   0  0  0  0  0  0  0  0  0  0  0  0
    5.6311   -2.7334   -6.5204 C   0  0  0  0  0  0  0  0  0  0  0  0
    6.1340   -2.3243   -5.3086 C   0  0  0  0  0  0  0  0  0  0  0  0
    6.6236   -1.0562   -5.0706 C   0  0  0  0  0  0  0  0  0  0  0  0
    6.5959   -0.1649   -6.1269 C   0  0  0  0  0  0  0  0  0  0  0  0
    7.0736    1.1098   -5.9352 O   0  0  0  0  0  0  0  0  0  0  0  0
    6.1016   -0.5399   -7.3475 C   0  0  0  0  0  0  0  0  0  0  0  0
    6.0979    0.3991   -8.3764 O   0  0  0  0  0  0  0  0  0  0  0  0
    5.6207   -1.8167   -7.5474 C   0  0  0  0  0  0  0  0  0  0  0  0
    5.3977   -5.7773   -8.4100 C   0  0  0  0  0  0  0  0  0  0  0  0
    6.6556   -5.9708   -8.3765 O   0  0  0  0  0  0  0  0  0  0  0  0
    4.5542   -6.8356   -8.7383 O   0  0  0  0  0  0  0  0  0  0  0  0
  2  1  1  1
  2  3  1  0
  3  4  1  0
  4  5  2  0
  5  6  1  0
  6  7  2  0
  7  8  1  0
  7  9  1  0
  9 10  1  0
  9 11  2  0
  2 12  1  0
 12 13  2  0
 12 14  1  0
 11  4  1  0
M  END
>  <docking_score>  (1) 
-5.819

$$$$

     RDKit          3D

 14 14  0  0  0  0  0  0  0  0999 V2000
    6.0471   -0.8074   -8.2575 N   0  0  0  0  0  0  0  0  0  0  0  0
    5.6743   -0.7991   -6.8585 C   0  0  1  0  0  0  0  0  0  0  0  0
    6.1417   -2.1057   -6.2542 C   0  0  0  0  0  0  0  0  0  0  0  0
    5.4497   -3.2740   -6.8439 C   0  0  0  0  0  0  0  0  0  0  0  0
    4.0845   -3.3803   -6.7272 C   0  0  0  0  0  0  0  0  0  0  0  0
    3.3506   -4.4294   -7.2420 C   0  0  0  0  0  0  0  0  0  0  0  0
    4.0513   -5.4171   -7.9087 C   0  0  0  0  0  0  0  0  0  0  0  0
    3.3608   -6.4815   -8.4380 O   0  0  0  0  0  0  0  0  0  0  0  0
    5.4119   -5.3422   -8.0430 C   0  0  0  0  0  0  0  0  0  0  0  0
    6.0666   -6.3656   -8.7244 O   0  0  0  0  0  0  0  0  0  0  0  0
    6.1113   -4.2777   -7.5147 C   0  0  0  0  0  0  0  0  0  0  0  0
    6.3763    0.2998   -6.1576 C   0  0  0  0  0  0  0  0  0  0  0  0
    7.4309    0.0953   -5.4744 O   0  0  0  0  0  0  0  0  0  0  0  0
    5.8651    1.5919   -6.2512 O   0  0  0  0  0  0  0  0  0  0  0  0
  2  1  1  6
  2  3  1  0
  3  4  1  0
  4  5  2  0
  5  6  1  0
  6  7  2  0
  7  8  1  0
  7  9  1  0
  9 10  1  0
  9 11  2  0
  2 12  1  0
 12 13  2  0
 12 14  1  0
 11  4  1  0
M  END
>  <docking_score>  (2) 
-5.016

$$$$

     RDKit          3D

 14 14  0  0  0  0  0  0  0  0999 V2000
   21.3721    9.3133   -0.8152 N   0  0  0  0  0  0  0  0  0  0  0  0
   20.2866    9.4506   -1.7635 C   0  0  1  0  0  0  0  0  0  0  0  0
   19.3733    8.2567   -1.5872 C   0  0  0  0  0  0  0  0  0  0  0  0
   19.2635    7.4490   -2.8230 C   0  0  0  0  0  0  0  0  0  0  0  0
   20.4068    7.0511   -3.4737 C   0  0  0  0  0  0  0  0  0  0  0  0
   20.4078    6.2978   -4.6299 C   0  0  0  0  0  0  0  0  0  0  0  0
   19.1765    5.9351   -5.1431 C   0  0  0  0  0  0  0  0  0  0  0  0
   19.1297    5.1843   -6.2938 O   0  0  0  0  0  0  0  0  0  0  0  0
   18.0180    6.3148   -4.5198 C   0  0  0  0  0  0  0  0  0  0  0  0
   16.8053    5.9214   -5.0810 O   0  0  0  0  0  0  0  0  0  0  0  0
   18.0570    7.0680   -3.3653 C   0  0  0  0  0  0  0  0  0  0  0  0
   19.5027   10.6686   -1.4575 C   0  0  0  0  0  0  0  0  0  0  0  0
   18.9270   10.8321   -0.3338 O   0  0  0  0  0  0  0  0  0  0  0  0
   19.3948   11.6607   -2.4289 O   0  0  0  0  0  0  0  0  0  0  0  0
  2  1  1  1
  2  3  1  0
  3  4  1  0
  4  5  2  0
  5  6  1  0
  6  7  2  0
  7  8  1  0
  7  9  1  0
  9 10  1  0
  9 11  2  0
  2 12  1  0
 12 13  2  0
 12 14  1  0
 11  4  1  0
M  END
>  <docking_score>  (3) 
-4.3310000000000004

$$$$
