
     RDKit          3D

 29 29  0  0  0  0  0  0  0  0999 V2000
    3.8525   14.2707   11.3968 C   0  0  0  0  0  0  0  0  0  0  0  0
    4.7870   14.2530   12.5850 C   0  0  0  0  0  0  0  0  0  0  0  0
    5.6464   13.0068   12.5947 C   0  0  2  0  0  0  0  0  0  0  0  0
    7.0309   13.2705   13.1419 C   0  0  0  0  0  0  0  0  0  0  0  0
    5.7091   12.4472   11.2365 C   0  0  0  0  0  0  0  0  0  0  0  0
    6.2028   13.1999   10.3309 O   0  0  0  0  0  0  0  0  0  0  0  0
    5.2652   11.1699   10.9117 O   0  0  0  0  0  0  0  0  0  0  0  0
    3.9207   10.8638   11.2330 C   0  0  0  0  0  3  0  0  0  0  0  0
    3.0233   10.8334   10.0396 C   0  0  0  0  0  0  0  0  0  0  0  0
    3.1679    9.5597    9.2378 C   0  0  2  0  0  0  0  0  0  0  0  0
    3.5767    8.4426   10.1786 C   0  0  0  0  0  0  0  0  0  0  0  0
    4.2297    9.7539    8.2433 C   0  0  0  0  0  0  0  0  0  0  0  0
    4.0924    9.6258    6.9460 C   0  0  0  0  0  0  0  0  0  0  0  0
    2.8600    9.2694    6.2836 C   0  0  0  0  0  0  0  0  0  0  0  0
    2.8893    8.6635    5.1128 C   0  0  0  0  0  0  0  0  0  0  0  0
    4.1380    8.3046    4.3928 C   0  0  2  0  0  0  0  0  0  0  0  0
    5.0330    7.4147    5.2246 C   0  0  0  0  0  0  0  0  0  0  0  0
    4.8460    9.5582    3.9831 C   0  0  2  0  0  0  0  0  0  0  0  0
    4.8570    9.6385    2.4727 C   0  0  0  0  0  0  0  0  0  0  0  0
    3.5574   10.2716    2.0371 C   0  0  0  0  0  0  0  0  0  0  0  0
    3.1235   11.2294    3.1003 C   0  0  0  0  0  3  0  0  0  0  0  0
    4.2021   12.2522    3.4426 C   0  0  1  0  0  0  0  0  0  0  0  0
    3.5385   13.6222    3.2458 C   0  0  0  0  0  2  0  0  0  0  0  0
    6.2292    9.6804    4.5774 C   0  0  0  0  0  0  0  0  0  0  0  0
    6.9096   10.6785    3.8792 O   0  0  0  0  0  0  0  0  0  0  0  0
    6.9277   11.8406    4.5722 N   0  0  0  0  0  0  0  0  0  0  0  0
    5.8256   12.3394    5.2980 C   0  0  0  0  0  0  0  0  0  0  0  0
    6.0015   12.9214    6.3878 O   0  0  0  0  0  0  0  0  0  0  0  0
    4.5568   12.1851    4.8061 O   0  0  0  0  0  0  0  0  0  0  0  0
  1  2  1  0
  2  3  1  0
  3  4  1  6
  3  5  1  0
  5  6  2  0
  5  7  1  0
  7  8  1  0
  8  9  1  0
  9 10  1  0
 10 11  1  1
 10 12  1  0
 12 13  2  3
 13 14  1  0
 14 15  2  3
 15 16  1  0
 16 17  1  1
 16 18  1  0
 18 19  1  6
 19 20  1  0
 20 21  1  0
 21 22  1  0
 22 23  1  1
 18 24  1  0
 24 25  1  0
 25 26  1  0
 26 27  1  0
 27 28  2  0
 27 29  1  0
 29 22  1  0
M  RAD  3   8   2  21   2  23   3
M  END
>  <docking_score>  (1) 
-3.3780000000000001

$$$$

     RDKit          3D

 29 29  0  0  0  0  0  0  0  0999 V2000
   15.5908    0.5855   -5.5833 C   0  0  0  0  0  0  0  0  0  0  0  0
   14.4354   -0.0962   -6.2802 C   0  0  0  0  0  0  0  0  0  0  0  0
   14.0240   -1.3625   -5.5599 C   0  0  2  0  0  0  0  0  0  0  0  0
   14.4127   -1.3423   -4.0990 C   0  0  0  0  0  0  0  0  0  0  0  0
   14.6036   -2.5253   -6.2483 C   0  0  0  0  0  0  0  0  0  0  0  0
   14.4049   -2.6012   -7.5073 O   0  0  0  0  0  0  0  0  0  0  0  0
   15.3365   -3.5137   -5.6004 O   0  0  0  0  0  0  0  0  0  0  0  0
   15.3588   -4.7911   -6.2106 C   0  0  0  0  0  3  0  0  0  0  0  0
   16.6399   -5.5263   -5.9892 C   0  0  0  0  0  0  0  0  0  0  0  0
   16.5010   -6.6413   -4.9776 C   0  0  2  0  0  0  0  0  0  0  0  0
   15.1221   -6.5546   -4.3521 C   0  0  0  0  0  0  0  0  0  0  0  0
   17.5097   -6.4470   -3.9294 C   0  0  0  0  0  0  0  0  0  0  0  0
   17.6839   -5.3506   -3.2322 C   0  0  0  0  0  0  0  0  0  0  0  0
   16.9010   -4.1475   -3.3879 C   0  0  0  0  0  0  0  0  0  0  0  0
   17.5004   -2.9804   -3.5200 C   0  0  0  0  0  0  0  0  0  0  0  0
   18.9745   -2.7978   -3.5212 C   0  0  2  0  0  0  0  0  0  0  0  0
   19.4001   -1.6372   -2.6513 C   0  0  0  0  0  0  0  0  0  0  0  0
   19.4462   -2.6228   -4.9310 C   0  0  2  0  0  0  0  0  0  0  0  0
   20.9583   -2.6591   -4.9455 C   0  0  0  0  0  0  0  0  0  0  0  0
   21.3821   -4.1062   -5.0202 C   0  0  0  0  0  0  0  0  0  0  0  0
   20.3423   -4.8598   -5.7864 C   0  0  0  0  0  3  0  0  0  0  0  0
   20.0642   -4.2464   -7.1551 C   0  0  1  0  0  0  0  0  0  0  0  0
   20.2918   -5.3822   -8.1621 C   0  0  0  0  0  2  0  0  0  0  0  0
   18.8926   -1.3831   -5.5930 C   0  0  0  0  0  0  0  0  0  0  0  0
   19.6428   -1.1398   -6.7438 O   0  0  0  0  0  0  0  0  0  0  0  0
   18.9918   -1.5566   -7.8545 N   0  0  0  0  0  0  0  0  0  0  0  0
   18.2557   -2.7578   -7.9290 C   0  0  0  0  0  0  0  0  0  0  0  0
   17.1919   -2.8043   -8.5798 O   0  0  0  0  0  0  0  0  0  0  0  0
   18.7088   -3.8783   -7.2850 O   0  0  0  0  0  0  0  0  0  0  0  0
  1  2  1  0
  2  3  1  0
  3  4  1  1
  3  5  1  0
  5  6  2  0
  5  7  1  0
  7  8  1  0
  8  9  1  0
  9 10  1  0
 10 11  1  1
 10 12  1  0
 12 13  2  3
 13 14  1  0
 14 15  2  3
 15 16  1  0
 16 17  1  1
 16 18  1  0
 18 19  1  1
 19 20  1  0
 20 21  1  0
 21 22  1  0
 22 23  1  6
 18 24  1  0
 24 25  1  0
 25 26  1  0
 26 27  1  0
 27 28  2  0
 27 29  1  0
 29 22  1  0
M  RAD  3   8   2  21   2  23   3
M  END
>  <docking_score>  (2) 
-3.1259999999999999

$$$$

     RDKit          3D

 29 29  0  0  0  0  0  0  0  0999 V2000
   13.8556    0.4567   -3.2905 C   0  0  0  0  0  0  0  0  0  0  0  0
   14.8704   -0.6336   -3.5490 C   0  0  0  0  0  0  0  0  0  0  0  0
   14.3140   -1.7014   -4.4666 C   0  0  2  0  0  0  0  0  0  0  0  0
   14.8635   -3.0733   -4.1478 C   0  0  0  0  0  0  0  0  0  0  0  0
   14.5835   -1.3322   -5.8640 C   0  0  0  0  0  0  0  0  0  0  0  0
   13.7546   -0.5311   -6.4132 O   0  0  0  0  0  0  0  0  0  0  0  0
   15.6723   -1.8075   -6.5868 O   0  0  0  0  0  0  0  0  0  0  0  0
   15.4234   -2.2055   -7.9226 C   0  0  0  0  0  3  0  0  0  0  0  0
   16.6669   -2.3326   -8.7398 C   0  0  0  0  0  0  0  0  0  0  0  0
   17.8802   -2.6652   -7.9012 C   0  0  2  0  0  0  0  0  0  0  0  0
   18.8968   -1.5513   -8.0625 C   0  0  0  0  0  0  0  0  0  0  0  0
   18.4637   -3.9153   -8.4020 C   0  0  0  0  0  0  0  0  0  0  0  0
   19.5172   -4.5177   -7.9064 C   0  0  0  0  0  0  0  0  0  0  0  0
   20.2782   -4.0401   -6.7761 C   0  0  0  0  0  0  0  0  0  0  0  0
   19.7282   -3.9981   -5.5784 C   0  0  0  0  0  0  0  0  0  0  0  0
   18.3337   -4.4194   -5.2880 C   0  0  2  0  0  0  0  0  0  0  0  0
   17.6634   -3.5025   -4.2906 C   0  0  0  0  0  0  0  0  0  0  0  0
   18.3394   -5.8365   -4.8062 C   0  0  2  0  0  0  0  0  0  0  0  0
   16.9494   -6.1925   -4.3275 C   0  0  0  0  0  0  0  0  0  0  0  0
   16.1512   -6.6406   -5.5280 C   0  0  0  0  0  0  0  0  0  0  0  0
   17.0870   -7.2894   -6.4972 C   0  0  0  0  0  3  0  0  0  0  0  0
   17.8979   -8.4155   -5.8637 C   0  0  1  0  0  0  0  0  0  0  0  0
   17.6264   -9.6499   -6.7346 C   0  0  0  0  0  2  0  0  0  0  0  0
   19.3959   -6.1041   -3.7603 C   0  0  0  0  0  0  0  0  0  0  0  0
   19.0964   -7.3223   -3.1497 O   0  0  0  0  0  0  0  0  0  0  0  0
   19.8711   -8.3205   -3.6340 N   0  0  0  0  0  0  0  0  0  0  0  0
   20.2069   -8.4633   -4.9968 C   0  0  0  0  0  0  0  0  0  0  0  0
   21.3438   -8.8584   -5.3263 O   0  0  0  0  0  0  0  0  0  0  0  0
   19.2828   -8.1674   -5.9632 O   0  0  0  0  0  0  0  0  0  0  0  0
  1  2  1  0
  2  3  1  0
  3  4  1  1
  3  5  1  0
  5  6  2  0
  5  7  1  0
  7  8  1  0
  8  9  1  0
  9 10  1  0
 10 11  1  6
 10 12  1  0
 12 13  2  3
 13 14  1  0
 14 15  2  3
 15 16  1  0
 16 17  1  1
 16 18  1  0
 18 19  1  1
 19 20  1  0
 20 21  1  0
 21 22  1  0
 22 23  1  6
 18 24  1  0
 24 25  1  0
 25 26  1  0
 26 27  1  0
 27 28  2  0
 27 29  1  0
 29 22  1  0
M  RAD  3   8   2  21   2  23   3
M  END
>  <docking_score>  (3) 
-3.0659999999999998

$$$$
