
     RDKit          3D

 28 28  0  0  0  0  0  0  0  0999 V2000
   13.2419   -0.3872   -4.6991 C   0  0  0  0  0  0  0  0  0  0  0  0
   14.1718   -1.2587   -5.4310 C   0  0  0  0  0  0  0  0  0  0  0  0
   14.1876   -2.6781   -5.0525 C   0  0  0  0  0  0  0  0  0  0  0  0
   15.4433   -0.6262   -5.8416 C   0  0  0  0  0  0  0  0  0  0  0  0
   16.6556   -1.4624   -5.5540 C   0  0  0  0  0  0  0  0  0  0  0  0
   17.7200   -1.1713   -6.5760 C   0  0  0  0  0  0  0  0  0  0  0  0
   19.1221   -1.2942   -6.0507 C   0  0  1  0  0  0  0  0  0  0  0  0
   20.0700   -2.0460   -6.9342 C   0  0  0  0  0  0  0  0  0  0  0  0
   19.6339    0.0749   -5.6837 C   0  0  0  0  0  3  0  0  0  0  0  0
   20.0413    0.0694   -4.2312 C   0  0  0  0  0  3  0  0  0  0  0  0
   19.5066   -1.1435   -3.5090 C   0  0  0  0  0  0  0  0  0  0  0  0
   20.5837   -2.1731   -3.2428 C   0  0  0  0  0  3  0  0  0  0  0  0
   20.0234   -3.1987   -2.2902 C   0  0  0  0  0  3  0  0  0  0  0  0
   21.0861   -4.1854   -1.8663 C   0  0  0  0  0  0  0  0  0  0  0  0
   18.8502   -3.9347   -2.8445 C   0  0  0  0  0  0  0  0  0  0  0  0
   19.2555   -4.8478   -3.9820 C   0  0  2  0  0  0  0  0  0  0  0  0
   18.2853   -4.6106   -5.1401 C   0  0  0  0  0  3  0  0  0  0  0  0
   19.1079   -6.3052   -3.6018 C   0  0  0  0  0  0  0  0  0  0  0  0
   20.0344   -7.0778   -4.4745 C   0  0  0  0  0  0  0  0  0  0  0  0
   19.6506   -7.8581   -5.4605 C   0  0  0  0  0  0  0  0  0  0  0  0
   20.7209   -8.5643   -6.2404 C   0  0  0  0  0  0  0  0  0  0  0  0
   18.2584   -8.1038   -5.8719 C   0  0  1  0  0  0  0  0  0  0  0  0
   17.3488   -8.1108   -4.8497 O   0  0  0  0  0  0  0  0  0  0  0  0
   17.8351   -7.3749   -7.0987 C   0  0  0  0  0  0  0  0  0  0  0  0
   16.9616   -6.1869   -6.8509 C   0  0  0  0  0  0  0  0  0  0  0  0
   16.3595   -6.1581   -5.4690 C   0  0  0  0  0  0  0  0  0  0  0  0
   16.8997   -4.9698   -4.7100 C   0  0  1  0  0  0  0  0  0  0  0  0
   16.7831   -5.3758   -2.8243 Br  0  0  0  0  0  0  0  0  0  0  0  0
  1  2  1  0
  2  3  1  0
  2  4  1  0
  4  5  1  0
  5  6  1  0
  6  7  1  0
  7  8  1  6
  7  9  1  0
  9 10  1  0
 10 11  1  0
 11 12  1  0
 12 13  1  0
 13 14  1  0
 13 15  1  0
 16 15  1  1
 16 17  1  0
 16 18  1  0
 18 19  1  0
 19 20  2  3
 20 21  1  0
 20 22  1  0
 22 23  1  1
 22 24  1  0
 24 25  1  0
 25 26  1  0
 26 27  1  0
 27 28  1  1
 27 17  1  0
M  RAD  5   9   2  10   2  12   2  13   2  17   2
M  END
>  <docking_score>  (1) 
-4.0149999999999997

$$$$

     RDKit          3D

 28 28  0  0  0  0  0  0  0  0999 V2000
   13.8667   -0.2086   -5.8522 C   0  0  0  0  0  0  0  0  0  0  0  0
   14.7610   -1.0125   -5.0072 C   0  0  0  0  0  0  0  0  0  0  0  0
   14.6205   -0.8534   -3.5535 C   0  0  0  0  0  0  0  0  0  0  0  0
   16.1104   -1.2528   -5.5611 C   0  0  0  0  0  0  0  0  0  0  0  0
   16.1307   -2.2233   -6.7054 C   0  0  0  0  0  0  0  0  0  0  0  0
   17.1782   -1.8046   -7.7001 C   0  0  0  0  0  0  0  0  0  0  0  0
   18.3850   -2.6988   -7.7304 C   0  0  1  0  0  0  0  0  0  0  0  0
   18.3336   -3.8045   -8.7398 C   0  0  0  0  0  0  0  0  0  0  0  0
   19.6244   -1.8515   -7.8613 C   0  0  0  0  0  3  0  0  0  0  0  0
   19.7352   -0.9600   -6.6494 C   0  0  0  0  0  3  0  0  0  0  0  0
   20.1646   -1.7349   -5.4272 C   0  0  0  0  0  0  0  0  0  0  0  0
   19.3132   -1.4150   -4.2173 C   0  0  0  0  0  3  0  0  0  0  0  0
   19.6470   -2.4107   -3.1355 C   0  0  0  0  0  3  0  0  0  0  0  0
   21.1232   -2.7319   -3.1282 C   0  0  0  0  0  0  0  0  0  0  0  0
   18.8608   -3.6742   -3.2387 C   0  0  0  0  0  0  0  0  0  0  0  0
   18.9710   -4.2847   -4.6197 C   0  0  2  0  0  0  0  0  0  0  0  0
   17.5550   -4.5887   -5.1107 C   0  0  0  0  0  3  0  0  0  0  0  0
   19.6969   -5.6120   -4.5821 C   0  0  0  0  0  0  0  0  0  0  0  0
   20.2660   -5.8345   -5.9399 C   0  0  0  0  0  0  0  0  0  0  0  0
   19.8157   -6.7220   -6.7991 C   0  0  0  0  0  0  0  0  0  0  0  0
   20.5095   -6.8130   -8.1269 C   0  0  0  0  0  0  0  0  0  0  0  0
   18.6864   -7.6400   -6.5762 C   0  0  1  0  0  0  0  0  0  0  0  0
   18.5484   -8.0808   -5.2882 O   0  0  0  0  0  0  0  0  0  0  0  0
   17.4220   -7.2461   -7.2557 C   0  0  0  0  0  0  0  0  0  0  0  0
   16.3872   -6.6503   -6.3557 C   0  0  0  0  0  0  0  0  0  0  0  0
   16.6455   -6.8987   -4.8912 C   0  0  0  0  0  0  0  0  0  0  0  0
   16.9150   -5.5845   -4.1982 C   0  0  1  0  0  0  0  0  0  0  0  0
   17.9812   -5.9559   -2.6300 Br  0  0  0  0  0  0  0  0  0  0  0  0
  1  2  1  0
  2  3  1  0
  2  4  1  0
  4  5  1  0
  5  6  1  0
  6  7  1  0
  7  8  1  6
  7  9  1  0
  9 10  1  0
 10 11  1  0
 11 12  1  0
 12 13  1  0
 13 14  1  0
 13 15  1  0
 16 15  1  1
 16 17  1  0
 16 18  1  0
 18 19  1  0
 19 20  2  3
 20 21  1  0
 20 22  1  0
 22 23  1  1
 22 24  1  0
 24 25  1  0
 25 26  1  0
 26 27  1  0
 27 28  1  1
 27 17  1  0
M  RAD  5   9   2  10   2  12   2  13   2  17   2
M  END
>  <docking_score>  (2) 
-3.738

$$$$

     RDKit          3D

 28 28  0  0  0  0  0  0  0  0999 V2000
   16.2935   -3.1197   -2.9771 C   0  0  0  0  0  0  0  0  0  0  0  0
   15.9259   -1.7006   -2.8715 C   0  0  0  0  0  0  0  0  0  0  0  0
   15.6381   -1.1885   -1.5250 C   0  0  0  0  0  0  0  0  0  0  0  0
   15.1534   -1.1593   -4.0098 C   0  0  0  0  0  0  0  0  0  0  0  0
   14.6220   -2.2134   -4.9360 C   0  0  0  0  0  0  0  0  0  0  0  0
   14.9298   -1.8333   -6.3583 C   0  0  0  0  0  0  0  0  0  0  0  0
   15.8390   -2.7973   -7.0660 C   0  0  1  0  0  0  0  0  0  0  0  0
   15.1756   -3.6610   -8.0945 C   0  0  0  0  0  0  0  0  0  0  0  0
   17.0234   -2.0455   -7.6169 C   0  0  0  0  0  3  0  0  0  0  0  0
   17.5467   -1.1135   -6.5524 C   0  0  0  0  0  3  0  0  0  0  0  0
   18.9730   -1.4395   -6.1810 C   0  0  0  0  0  0  0  0  0  0  0  0
   19.0559   -2.4446   -5.0522 C   0  0  0  0  0  3  0  0  0  0  0  0
   20.4821   -2.9247   -4.9589 C   0  0  0  0  0  3  0  0  0  0  0  0
   21.3824   -2.1388   -5.8832 C   0  0  0  0  0  0  0  0  0  0  0  0
   20.6294   -4.3827   -5.2379 C   0  0  0  0  0  0  0  0  0  0  0  0
   19.3750   -5.1469   -4.8713 C   0  0  2  0  0  0  0  0  0  0  0  0
   19.7675   -6.6069   -4.6414 C   0  0  0  0  0  3  0  0  0  0  0  0
   18.3781   -5.1540   -6.0099 C   0  0  0  0  0  0  0  0  0  0  0  0
   17.0335   -5.3719   -5.4087 C   0  0  0  0  0  0  0  0  0  0  0  0
   16.3421   -6.4850   -5.5158 C   0  0  0  0  0  0  0  0  0  0  0  0
   15.0002   -6.5329   -4.8453 C   0  0  0  0  0  0  0  0  0  0  0  0
   16.7668   -7.6960   -6.2376 C   0  0  1  0  0  0  0  0  0  0  0  0
   17.5133   -7.4647   -7.3608 O   0  0  0  0  0  0  0  0  0  0  0  0
   17.2499   -8.8016   -5.3659 C   0  0  0  0  0  0  0  0  0  0  0  0
   18.7347   -8.9752   -5.3403 C   0  0  0  0  0  0  0  0  0  0  0  0
   19.4445   -8.2708   -6.4686 C   0  0  0  0  0  0  0  0  0  0  0  0
   20.3221   -7.1782   -5.9062 C   0  0  1  0  0  0  0  0  0  0  0  0
   20.5600   -5.8476   -7.2871 Br  0  0  0  0  0  0  0  0  0  0  0  0
  1  2  1  0
  2  3  1  0
  2  4  1  0
  4  5  1  0
  5  6  1  0
  6  7  1  0
  7  8  1  6
  7  9  1  0
  9 10  1  0
 10 11  1  0
 11 12  1  0
 12 13  1  0
 13 14  1  0
 13 15  1  0
 16 15  1  6
 16 17  1  0
 16 18  1  0
 18 19  1  0
 19 20  2  3
 20 21  1  0
 20 22  1  0
 22 23  1  6
 22 24  1  0
 24 25  1  0
 25 26  1  0
 26 27  1  0
 27 28  1  6
 27 17  1  0
M  RAD  5   9   2  10   2  12   2  13   2  17   2
M  END
>  <docking_score>  (3) 
-3.7320000000000002

$$$$
