
     RDKit          3D

 87 89  0  0  0  0  0  0  0  0999 V2000
   16.5495    4.7299    5.0458 C   0  0  0  0  0  0  0  0  0  0  0  0
   16.2198    3.2689    4.9628 C   0  0  0  0  0  0  0  0  0  0  0  0
   17.2826    2.2441    5.2274 C   0  0  0  0  0  0  0  0  0  0  0  0
   14.8273    2.8328    4.6152 C   0  0  0  0  0  0  0  0  0  0  0  0
   14.6067    1.5466    3.8758 C   0  0  0  0  0  0  0  0  0  0  0  0
   14.0085    0.3674    4.5839 C   0  0  0  0  0  0  0  0  0  0  0  0
   14.8530   -0.4614    5.5057 C   0  0  0  0  0  0  0  0  0  0  0  0
   14.2584   -1.0292    6.7604 C   0  0  0  0  0  0  0  0  0  0  0  0
   16.2921   -0.7226    5.1729 C   0  0  0  0  0  3  0  0  0  0  0  0
   17.0777    0.2908    4.3945 C   0  0  0  0  0  0  0  0  0  0  0  0
   16.4272    1.0422    3.2710 C   0  0  0  0  0  0  0  0  0  0  0  0
   17.0851    1.0952    1.9241 C   0  0  0  0  0  0  0  0  0  0  0  0
   18.5701    1.2908    2.0045 C   0  0  0  0  0  0  0  0  0  0  0  0
   16.2588    0.9571    0.6799 C   0  0  0  0  0  3  0  0  0  0  0  0
   16.8399    1.3306   -0.6516 C   0  0  0  0  0  0  0  0  0  0  0  0
   16.6989    2.8232   -0.6989 C   0  0  0  0  0  0  0  0  0  0  0  0
   16.0569    3.3388    0.5549 C   0  0  0  0  0  0  0  0  0  0  0  0
   16.8683    4.1527   -1.3726 C   0  0  0  0  0  0  0  0  0  0  0  0
   17.3094    5.0144   -2.5185 C   0  0  0  0  0  0  0  0  0  0  0  0
   17.9210    5.2110   -3.8739 C   0  0  0  0  0  0  0  0  0  0  0  0
   17.8573    6.6948   -4.0847 C   0  0  0  0  0  0  0  0  0  0  0  0
   18.5631    4.6974   -5.1285 C   0  0  0  0  0  0  0  0  0  0  0  0
   19.0886    3.5913   -5.9947 C   0  0  0  0  0  0  0  0  0  0  0  0
   19.3771    2.1461   -6.2743 C   0  0  0  0  0  0  0  0  0  0  0  0
   20.0103    2.1629   -7.6340 C   0  0  0  0  0  0  0  0  0  0  0  0
   19.3625    0.6928   -5.9030 C   0  0  0  0  0  0  0  0  0  0  0  0
   19.6967   -0.7176   -6.2887 C   0  0  0  0  0  0  0  0  0  0  0  0
   19.0481   -0.4356   -4.9660 C   0  0  0  0  0  0  0  0  0  0  0  0
   18.5060   -0.9805   -3.6779 C   0  0  0  0  0  0  0  0  0  0  0  0
   17.8604   -0.8173   -2.3338 C   0  0  0  0  0  0  0  0  0  0  0  0
   17.2591    0.0168   -1.2417 C   0  0  0  0  0  0  0  0  0  0  0  0
   16.8787   -0.9855   -0.1927 O   0  0  0  0  0  0  0  0  0  0  0  0
   16.0604   -0.5595    0.9901 C   0  0  0  0  0  0  0  0  0  0  0  0
   14.9489   -1.4351    1.4878 C   0  0  0  0  0  0  0  0  0  0  0  0
   14.1046   -2.2019    0.5135 C   0  0  0  0  0  0  0  0  0  0  0  0
   13.5787   -3.5576    0.8815 C   0  0  0  0  0  0  0  0  0  0  0  0
   12.1056   -3.7637    1.0742 C   0  0  0  0  0  0  0  0  0  0  0  0
   11.6030   -5.0142    1.7329 C   0  0  0  0  0  0  0  0  0  0  0  0
   11.1349   -2.7193    0.6084 P   0  0  0  0  0  0  0  0  0  0  0  0
   11.5076   -1.2677    0.6710 C   0  0  0  0  0  0  0  0  0  0  0  0
   11.0518   -0.3292   -0.4067 C   0  0  0  0  0  0  0  0  0  0  0  0
    9.5880   -0.0656   -0.6018 C   0  0  0  0  0  0  0  0  0  0  0  0
    8.9878   -0.1460   -1.9741 C   0  0  0  0  0  0  0  0  0  0  0  0
    9.6974    0.4750   -3.1407 C   0  0  0  0  0  0  0  0  0  0  0  0
    9.2375    1.7964   -3.6814 C   0  0  0  0  0  0  0  0  0  0  0  0
    8.5517    2.7786   -2.7786 C   0  0  0  0  0  0  0  0  0  0  0  0
    7.0624    2.7274   -2.6082 C   0  0  0  0  0  0  0  0  0  0  0  0
    6.4106    3.4710   -1.4802 C   0  0  0  0  0  0  0  0  0  0  0  0
    4.9195    3.6320   -1.4505 C   0  0  0  0  0  0  0  0  0  0  0  0
    7.2498    4.0536   -0.3819 C   0  0  0  0  0  0  0  0  0  0  0  0
    8.2631    3.1996    0.3210 O   0  0  0  0  0  0  0  0  0  0  0  0
    7.0758    5.4900    0.0135 C   0  0  0  0  0  3  0  0  0  0  0  0
    8.1744    6.2058    0.7420 C   0  0  0  0  0  0  0  0  0  0  0  0
    8.2146    6.1898    2.2413 C   0  0  0  0  0  0  0  0  0  0  0  0
    7.5404    5.0839    2.9980 F   0  0  0  0  0  0  0  0  0  0  0  0
    8.9292    7.2797    2.9841 P   0  0  0  0  0  0  0  0  0  0  0  0
    8.1870    8.5154    3.3994 C   0  0  0  0  0  0  0  0  0  0  0  0
    6.9404    8.9218    2.6710 C   0  0  0  0  0  0  0  0  0  0  0  0
    6.1520    7.9004    1.9060 C   0  0  0  0  0  0  0  0  0  0  0  0
    4.8731    8.2937    1.2280 C   0  0  0  0  0  0  0  0  0  0  0  0
    4.9124    9.0387   -0.0732 C   0  0  0  0  0  2  0  0  0  0  0  0
    3.5548    7.9420    1.8514 C   0  0  0  0  0  0  0  0  0  0  0  0
    2.4041    8.9000    1.7630 C   0  0  0  0  0  3  0  0  0  0  0  0
    2.3592   10.1029    2.6580 C   0  0  0  0  0  0  0  0  0  0  0  0
    2.2575   11.4765    2.0638 C   0  0  0  0  0  0  0  0  0  0  0  0
    2.4161    9.9323    4.1472 C   0  0  0  0  0  0  0  0  0  0  0  0
    3.5841   10.4700    4.9196 C   0  0  0  0  0  0  0  0  0  0  0  0
    4.7831   11.0026    4.1924 C   0  0  0  0  0  0  0  0  0  0  0  0
    3.5531   10.4750    6.4193 P   0  0  0  0  0  0  0  0  0  0  0  0
    3.9719   11.8750    6.7572 C   0  0  0  0  0  0  0  0  0  0  0  0
    4.2940   13.0000    7.6956 C   0  0  0  0  0  0  0  0  0  0  0  0
    4.4555   13.6271    9.0487 C   0  0  0  0  0  0  0  0  0  0  0  0
    4.8881   15.0250    8.7192 C   0  0  0  0  0  0  0  0  0  0  0  0
    4.4245   13.6320   10.5484 C   0  0  0  0  0  0  0  0  0  0  0  0
    4.2071   13.0138   11.8976 C   0  0  0  0  0  3  0  0  0  0  0  0
    3.8463   11.8949   12.8293 C   0  0  0  0  0  0  0  0  0  0  0  0
    3.4137   10.4970   13.1588 C   0  0  0  0  0  3  0  0  0  0  0  0
    2.9948    9.0969   12.8208 C   0  0  0  0  0  0  0  0  0  0  0  0
    2.7774    8.4786   14.1701 C   0  0  0  0  0  2  0  0  0  0  0  0
    2.6728    7.9719   11.8824 C   0  0  0  0  0  0  0  0  0  0  0  0
    2.5113    7.3448   10.5294 C   0  0  0  0  0  0  0  0  0  0  0  0
    2.5423    7.3399    9.0297 C   0  0  0  0  0  3  0  0  0  0  0  0
    2.7597    7.9581    7.6804 P   0  0  0  0  0  0  0  0  0  0  0  0
    2.4376    6.8331    6.7420 C   0  0  0  0  0  0  0  0  0  0  0  0
    3.1205    9.0770    6.7488 C   0  0  0  0  0  0  0  0  0  0  0  0
    2.9589    8.4499    5.3958 C   0  0  0  0  0  0  0  0  0  0  0  0
    2.8184    9.3162    4.1795 P   0  0  0  0  0  0  0  0  0  0  0  0
  1  2  1  0
  2  3  1  0
  2  4  1  0
  4  5  1  0
  5  6  1  0
  6  7  1  0
  7  8  1  0
  7  9  1  0
  9 10  1  0
 10 11  1  0
 11 12  1  0
 12 13  1  0
 12 14  1  0
 14 15  1  0
 15 16  1  0
 16 17  1  0
 16 18  1  0
 18 19  1  0
 19 20  1  0
 20 21  1  0
 20 22  1  0
 22 23  1  0
 23 24  1  0
 24 25  1  0
 24 26  1  0
 26 27  1  0
 27 28  1  0
 28 29  1  0
 29 30  1  0
 30 31  1  0
 31 32  1  0
 32 33  1  0
 33 34  1  0
 34 35  1  0
 35 36  1  0
 36 37  1  0
 37 38  1  0
 37 39  1  0
 39 40  1  0
 40 41  1  0
 41 42  1  0
 42 43  1  0
 43 44  1  0
 44 45  1  0
 45 46  1  0
 46 47  1  0
 47 48  1  0
 48 49  1  0
 48 50  1  0
 50 51  1  0
 50 52  1  0
 52 53  1  0
 53 54  1  0
 54 55  1  0
 54 56  1  0
 56 57  1  0
 57 58  1  0
 58 59  1  0
 59 60  1  0
 60 61  1  0
 60 62  1  0
 62 63  1  0
 63 64  1  0
 64 65  1  0
 64 66  1  0
 66 67  1  0
 67 68  1  0
 67 69  1  0
 69 70  1  0
 70 71  1  0
 71 72  1  0
 72 73  1  0
 72 74  1  0
 74 75  1  0
 75 76  1  0
 76 77  1  0
 77 78  1  0
 78 79  1  0
 78 80  1  0
 80 81  1  0
 81 82  1  0
 82 83  1  0
 83 84  1  0
 83 85  1  0
 85 86  1  0
 86 87  1  0
 31 15  1  0
 28 26  1  0
 85 69  1  0
M  RAD  8   9   2  14   2  52   2  61   3  63   2  75   2  77   2  79   3
M  RAD  1  82   2
M  END
>  <docking_score>  (1) 
148.011

$$$$
