
     RDKit          3D

 34 34  0  0  0  0  0  0  0  0999 V2000
   12.5409   -5.3010   -5.3159 C   0  0  0  0  0  0  0  0  0  0  0  0
   13.5701   -5.1585   -6.3888 C   0  0  1  0  0  0  0  0  0  0  0  0
   14.0522   -3.7283   -6.5054 C   0  0  0  0  0  0  0  0  0  0  0  0
   14.6801   -6.1542   -6.3217 C   0  0  0  0  0  0  0  0  0  0  0  0
   14.7819   -6.8856   -5.0236 C   0  0  0  0  0  0  0  0  0  0  0  0
   16.2755   -7.0616   -4.7200 C   0  0  0  0  0  0  0  0  0  0  0  0
   16.9907   -5.8973   -5.3280 C   0  0  1  0  0  0  0  0  0  0  0  0
   18.1457   -5.3999   -4.5169 C   0  0  0  0  0  0  0  0  0  0  0  0
   17.3112   -6.0776   -6.7808 C   0  0  0  0  0  3  0  0  0  0  0  0
   18.4510   -7.0485   -7.0061 C   0  0  0  0  0  0  0  0  0  0  0  0
   19.7605   -6.5351   -6.4858 C   0  0  0  0  0  0  0  0  0  0  0  0
   20.3512   -5.5565   -7.4674 C   0  0  2  0  0  0  0  0  0  0  0  0
   21.3762   -4.7104   -6.7071 C   0  0  0  0  0  0  0  0  0  0  0  0
   19.2808   -4.5976   -7.9922 C   0  0  0  0  0  3  0  0  0  0  0  0
   19.9073   -3.4452   -8.7112 C   0  0  0  0  0  0  0  0  0  0  0  0
   19.4741   -2.1549   -8.0600 C   0  0  2  0  0  0  0  0  0  0  0  0
   20.5410   -1.0776   -8.1983 C   0  0  0  0  0  3  0  0  0  0  0  0
   20.6219   -0.3606   -6.8581 C   0  0  0  0  0  0  0  0  0  0  0  0
   21.3747    0.9302   -7.0263 C   0  0  0  0  0  0  0  0  0  0  0  0
   20.5638    2.0827   -6.4825 C   0  0  0  0  0  0  0  0  0  0  0  0
   20.0773    1.7287   -5.0985 C   0  0  0  0  0  0  0  0  0  0  0  0
   21.2709    1.6165   -4.1670 C   0  0  0  0  0  0  0  0  0  0  0  0
   21.2170    0.3164   -3.6265 O   0  0  0  0  0  0  0  0  0  0  0  0
   20.1693    0.2936   -2.7038 C   0  0  0  0  0  0  0  0  0  0  0  0
   20.6136   -0.5426   -1.5139 C   0  0  0  0  0  0  0  0  0  0  0  0
   19.6909   -1.7299   -1.3567 C   0  0  0  0  0  3  0  0  0  0  0  0
   19.2379   -2.2552   -2.6981 C   0  0  0  0  0  0  0  0  0  0  0  0
   17.8461   -2.8049   -2.5730 C   0  0  0  0  0  0  0  0  0  0  0  0
   16.8944   -1.7678   -2.0266 C   0  0  0  0  0  0  0  0  0  0  0  0
   19.1111   -2.3271   -6.6064 C   0  0  0  0  0  0  0  0  0  0  0  0
   17.7765   -1.6293   -6.3674 C   0  0  0  0  0  0  0  0  0  0  0  0
   16.6703   -2.6329   -6.2446 C   0  0  0  0  0  0  0  0  0  0  0  0
   16.0902   -2.9897   -7.5682 C   0  0  0  0  0  0  0  0  0  0  0  0
   14.8715   -3.5007   -7.7013 C   0  0  0  0  0  3  0  0  0  0  0  0
  2  1  1  1
  2  3  1  0
  2  4  1  0
  4  5  1  0
  5  6  1  0
  6  7  1  0
  7  8  1  1
  7  9  1  0
  9 10  1  0
 10 11  1  0
 11 12  1  0
 12 13  1  1
 12 14  1  0
 14 15  1  0
 15 16  1  0
 16 17  1  1
 17 18  1  0
 18 19  1  0
 19 20  1  0
 20 21  1  0
 21 22  1  0
 22 23  1  0
 23 24  1  0
 24 25  1  0
 25 26  1  0
 26 27  1  0
 27 28  1  0
 28 29  1  0
 16 30  1  0
 30 31  1  0
 31 32  1  0
 32 33  1  0
 33 34  2  3
 34  3  1  0
M  RAD  5   9   2  14   2  17   2  26   2  34   2
M  END
>  <docking_score>  (1) 
-3.1360000000000001

$$$$
