
     RDKit          3D

 28 28  0  0  0  0  0  0  0  0999 V2000
    4.7311    9.6577   12.0381 C   0  0  0  0  0  0  0  0  0  0  0  0
    4.7768    8.8259   10.7892 C   0  0  0  0  0  3  0  0  0  0  0  0
    4.3381    9.6403    9.6026 C   0  0  0  0  0  0  0  0  0  0  0  0
    3.3491    8.9472    8.7404 C   0  0  2  0  0  0  0  0  0  0  0  0
    3.7336    7.5913    8.6200 O   0  0  0  0  0  0  0  0  0  0  0  0
    3.2775    9.4492    7.3051 C   0  0  2  0  0  0  0  0  0  0  0  0
    2.9947    8.3619    6.4473 O   0  0  0  0  0  0  0  0  0  0  0  0
    4.6920    9.9454    6.9521 C   0  0  0  0  0  3  0  0  0  0  0  0
    4.5647   11.1976    6.1465 C   0  0  1  0  0  0  0  0  0  0  0  0
    4.1646   10.9451    4.8531 O   0  0  0  0  0  0  0  0  0  0  0  0
    3.5558   12.0818    6.8891 C   0  0  0  0  0  3  0  0  0  0  0  0
    4.1657   13.4708    7.0730 C   0  0  0  0  0  3  0  0  0  0  0  0
    5.5985   13.3261    6.8549 N   0  0  0  0  0  0  0  0  0  0  0  0
    6.0953   14.6374    6.4297 C   0  0  0  0  0  3  0  0  0  0  0  0
    5.7581   14.8147    4.9651 C   0  0  0  0  0  0  0  0  0  0  0  0
    7.0580   14.7345    4.1968 C   0  0  1  0  0  0  0  0  0  0  0  0
    7.1692   15.9241    3.4701 O   0  0  0  0  0  0  0  0  0  0  0  0
    8.1775   14.5576    5.0747 N   0  0  0  0  0  0  0  0  0  0  0  0
    9.0932   15.6589    5.0976 C   0  0  0  0  0  3  0  0  0  0  0  0
    9.8462   15.7838    3.9439 O   0  0  0  0  0  0  0  0  0  0  0  0
    9.7924   14.7089    3.1867 O   0  0  0  0  0  0  0  0  0  0  0  0
    8.7974   14.8836    2.2309 C   0  0  1  0  0  0  0  0  0  0  0  0
    9.3480   15.2377    1.0091 O   0  0  0  0  0  0  0  0  0  0  0  0
    7.9919   13.6148    2.1614 C   0  0  2  0  0  0  0  0  0  0  0  0
    7.4071   13.4197    0.9043 O   0  0  0  0  0  0  0  0  0  0  0  0
    6.9533   13.5484    3.2567 C   0  0  1  0  0  0  0  0  0  0  0  0
    7.1252   12.3938    4.0155 O   0  0  0  0  0  0  0  0  0  0  0  0
    7.9594   11.5878    3.3894 O   0  0  0  0  0  0  0  0  0  0  0  0
  1  2  1  0
  2  3  1  0
  3  4  1  0
  4  5  1  6
  4  6  1  0
  6  7  1  6
  6  8  1  0
  8  9  1  0
  9 10  1  6
  9 11  1  0
 11 12  1  0
 12 13  1  0
 13 14  1  0
 14 15  1  0
 15 16  1  0
 16 17  1  6
 16 18  1  0
 18 19  1  0
 19 20  1  0
 20 21  1  0
 21 22  1  0
 22 23  1  6
 22 24  1  0
 24 25  1  6
 24 26  1  0
 26 27  1  1
 27 28  1  0
 26 16  1  0
M  RAD  6   2   2   8   2  11   2  12   2  14   2  19   2
M  END
>  <docking_score>  (1) 
-3.778

$$$$

     RDKit          3D

 28 28  0  0  0  0  0  0  0  0999 V2000
   16.2498   -1.6582   -2.1135 C   0  0  0  0  0  0  0  0  0  0  0  0
   15.9988   -2.2296   -3.4789 C   0  0  0  0  0  3  0  0  0  0  0  0
   16.5816   -1.3318   -4.5363 C   0  0  0  0  0  0  0  0  0  0  0  0
   16.7832   -2.0067   -5.8424 C   0  0  2  0  0  0  0  0  0  0  0  0
   17.9183   -1.4402   -6.4679 O   0  0  0  0  0  0  0  0  0  0  0  0
   15.6594   -1.8136   -6.8508 C   0  0  2  0  0  0  0  0  0  0  0  0
   14.7158   -0.9021   -6.3244 O   0  0  0  0  0  0  0  0  0  0  0  0
   14.9510   -3.1757   -6.9713 C   0  0  0  0  0  3  0  0  0  0  0  0
   15.1807   -3.7061   -8.3493 C   0  0  1  0  0  0  0  0  0  0  0  0
   16.5209   -3.8237   -8.6443 O   0  0  0  0  0  0  0  0  0  0  0  0
   14.4665   -5.0617   -8.4092 C   0  0  0  0  0  3  0  0  0  0  0  0
   14.4042   -5.6439   -6.9978 C   0  0  0  0  0  3  0  0  0  0  0  0
   15.6383   -6.3926   -6.8037 N   0  0  0  0  0  0  0  0  0  0  0  0
   15.8873   -6.4292   -5.3603 C   0  0  0  0  0  3  0  0  0  0  0  0
   17.1627   -7.2089   -5.1236 C   0  0  0  0  0  0  0  0  0  0  0  0
   18.1813   -6.2378   -4.5708 C   0  0  1  0  0  0  0  0  0  0  0  0
   17.7167   -4.9536   -4.8719 O   0  0  0  0  0  0  0  0  0  0  0  0
   18.3563   -6.4070   -3.1580 N   0  0  0  0  0  0  0  0  0  0  0  0
   17.9282   -5.2903   -2.3693 C   0  0  0  0  0  3  0  0  0  0  0  0
   18.7513   -4.1835   -2.4745 O   0  0  0  0  0  0  0  0  0  0  0  0
   19.9099   -4.4665   -3.0305 O   0  0  0  0  0  0  0  0  0  0  0  0
   19.8306   -4.1981   -4.3927 C   0  0  1  0  0  0  0  0  0  0  0  0
   20.4296   -2.9835   -4.6887 O   0  0  0  0  0  0  0  0  0  0  0  0
   20.4548   -5.3510   -5.1306 C   0  0  2  0  0  0  0  0  0  0  0  0
   20.9824   -4.9707   -6.3706 O   0  0  0  0  0  0  0  0  0  0  0  0
   19.4932   -6.5062   -5.2839 C   0  0  1  0  0  0  0  0  0  0  0  0
   20.0393   -7.6646   -4.7380 O   0  0  0  0  0  0  0  0  0  0  0  0
   20.6762   -8.3268   -5.6833 O   0  0  0  0  0  0  0  0  0  0  0  0
  1  2  1  0
  2  3  1  0
  3  4  1  0
  4  5  1  6
  4  6  1  0
  6  7  1  1
  6  8  1  0
  8  9  1  0
  9 10  1  1
  9 11  1  0
 11 12  1  0
 12 13  1  0
 13 14  1  0
 14 15  1  0
 15 16  1  0
 16 17  1  1
 16 18  1  0
 18 19  1  0
 19 20  1  0
 20 21  1  0
 21 22  1  0
 22 23  1  1
 22 24  1  0
 24 25  1  6
 24 26  1  0
 26 27  1  1
 27 28  1  0
 26 16  1  0
M  RAD  6   2   2   8   2  11   2  12   2  14   2  19   2
M  END
>  <docking_score>  (2) 
-3.5329999999999999

$$$$

     RDKit          3D

 28 28  0  0  0  0  0  0  0  0999 V2000
   18.7822   -9.6362   -8.2059 C   0  0  0  0  0  0  0  0  0  0  0  0
   20.1129   -8.9419   -8.1812 C   0  0  0  0  0  3  0  0  0  0  0  0
   20.1706   -7.9631   -7.0399 C   0  0  0  0  0  0  0  0  0  0  0  0
   19.5758   -6.6421   -7.3607 C   0  0  2  0  0  0  0  0  0  0  0  0
   20.1456   -6.1767   -8.5687 O   0  0  0  0  0  0  0  0  0  0  0  0
   19.8692   -5.5386   -6.3540 C   0  0  2  0  0  0  0  0  0  0  0  0
   20.3644   -4.4057   -7.0393 O   0  0  0  0  0  0  0  0  0  0  0  0
   21.0119   -6.0614   -5.4637 C   0  0  0  0  0  3  0  0  0  0  0  0
   20.5191   -6.1270   -4.0545 C   0  0  1  0  0  0  0  0  0  0  0  0
   21.3731   -6.8341   -3.2376 O   0  0  0  0  0  0  0  0  0  0  0  0
   20.3634   -4.6742   -3.5890 C   0  0  0  0  0  3  0  0  0  0  0  0
   19.9897   -4.6731   -2.1074 C   0  0  0  0  0  3  0  0  0  0  0  0
   18.7418   -3.9305   -1.9956 N   0  0  0  0  0  0  0  0  0  0  0  0
   17.7975   -4.5488   -2.9298 C   0  0  0  0  0  3  0  0  0  0  0  0
   16.4640   -3.8486   -2.7815 C   0  0  0  0  0  0  0  0  0  0  0  0
   16.3213   -2.9102   -3.9585 C   0  0  1  0  0  0  0  0  0  0  0  0
   16.5020   -1.6148   -3.4636 O   0  0  0  0  0  0  0  0  0  0  0  0
   17.2738   -3.2089   -4.9875 N   0  0  0  0  0  0  0  0  0  0  0  0
   18.2489   -2.1830   -5.2091 C   0  0  0  0  0  3  0  0  0  0  0  0
   17.7405   -1.0516   -5.8215 O   0  0  0  0  0  0  0  0  0  0  0  0
   16.5501   -1.2524   -6.3454 O   0  0  0  0  0  0  0  0  0  0  0  0
   15.5839   -0.8575   -5.4265 C   0  0  1  0  0  0  0  0  0  0  0  0
   15.0824    0.3938   -5.7495 O   0  0  0  0  0  0  0  0  0  0  0  0
   14.5191   -1.9196   -5.3865 C   0  0  2  0  0  0  0  0  0  0  0  0
   13.2682   -1.4104   -5.0169 O   0  0  0  0  0  0  0  0  0  0  0  0
   14.9142   -3.0778   -4.5004 C   0  0  1  0  0  0  0  0  0  0  0  0
   14.8796   -4.2694   -5.2196 O   0  0  0  0  0  0  0  0  0  0  0  0
   13.6457   -4.4900   -5.6275 O   0  0  0  0  0  0  0  0  0  0  0  0
  1  2  1  0
  2  3  1  0
  3  4  1  0
  4  5  1  6
  4  6  1  0
  6  7  1  6
  6  8  1  0
  8  9  1  0
  9 10  1  1
  9 11  1  0
 11 12  1  0
 12 13  1  0
 13 14  1  0
 14 15  1  0
 15 16  1  0
 16 17  1  1
 16 18  1  0
 18 19  1  0
 19 20  1  0
 20 21  1  0
 21 22  1  0
 22 23  1  6
 22 24  1  0
 24 25  1  1
 24 26  1  0
 26 27  1  6
 27 28  1  0
 26 16  1  0
M  RAD  6   2   2   8   2  11   2  12   2  14   2  19   2
M  END
>  <docking_score>  (3) 
-3.137

$$$$
