
     RDKit          3D

 61 69  0  0  0  0  0  0  0  0999 V2000
   12.9766   13.0680   17.0520 C   0  0  0  0  0  0  0  0  0  0  0  0
   13.2346   14.0966   15.9601 C   0  0  2  0  0  0  0  0  0  0  0  0
   14.0266   13.4758   14.8239 C   0  0  0  0  0  0  0  0  0  0  0  0
   13.6547   14.2917   13.5940 C   0  0  2  0  0  0  0  0  0  0  0  0
   14.7163   15.1454   13.3411 O   0  0  0  0  0  0  0  0  0  0  0  0
   15.3640   15.3725   14.4832 O   0  0  0  0  0  0  0  0  0  0  0  0
   14.5710   16.0663   15.3657 C   0  0  0  0  0  0  0  0  0  0  0  0
   14.0421   15.2397   16.5013 C   0  0  0  0  0  3  0  0  0  0  0  0
   12.4550   15.1352   14.0069 C   0  0  0  0  0  0  0  0  0  0  0  0
   11.9655   14.5194   15.2817 C   0  0  2  0  0  0  0  0  0  0  0  0
   11.2745   15.4160   16.0621 O   0  0  0  0  0  0  0  0  0  0  0  0
    9.9183   15.4162   15.8511 C   0  0  0  0  0  0  0  0  0  0  0  0
    9.5010   15.3752   14.4169 C   0  0  0  0  0  3  0  0  0  0  0  0
    8.7386   14.1059   14.0779 C   0  0  1  0  0  0  0  0  0  0  0  0
    9.4920   12.8733   14.5163 C   0  0  0  0  0  2  0  0  0  0  0  0
    7.3797   14.2045   14.7373 C   0  0  0  0  0  0  0  0  0  0  0  0
    6.5305   14.7213   13.5951 C   0  0  0  0  0  0  0  0  0  0  0  0
    7.0174   13.9554   12.5250 O   0  0  0  0  0  0  0  0  0  0  0  0
    8.4109   14.0417   12.6232 C   0  0  2  0  0  0  0  0  0  0  0  0
    9.0165   12.9504   11.9894 O   0  0  0  0  0  0  0  0  0  0  0  0
    8.1372   12.3599   11.0841 C   0  0  2  0  0  0  0  0  0  0  0  0
    7.0810   13.2453   10.8879 O   0  0  0  0  0  0  0  0  0  0  0  0
    7.6389   11.0870   11.7094 C   0  0  1  0  0  0  0  0  0  0  0  0
    6.1373   10.9432   11.6285 C   0  0  0  0  0  0  0  0  0  0  0  0
    5.9870    9.4760   11.2675 C   0  0  0  0  0  0  0  0  0  0  0  0
    7.2518    8.9007   11.5205 O   0  0  0  0  0  0  0  0  0  0  0  0
    8.0917    9.8582   10.9493 C   0  0  1  0  0  0  0  0  0  0  0  0
    7.4010   10.0971    9.1988 S   0  0  1  0  0  0  0  0  0  0  0  0
    8.1164    9.7794    7.9534 O   0  0  0  0  0  0  0  0  0  0  0  0
    9.0887   10.5159    7.3366 C   0  0  0  0  0  3  0  0  0  0  0  0
    8.9175   10.6792    5.8652 C   0  0  0  0  0  3  0  0  0  0  0  0
    8.5883   12.1048    5.4613 C   0  0  0  0  0  0  0  0  0  0  0  0
    7.4966   12.0566    4.4470 C   0  0  0  0  0  3  0  0  0  0  0  0
    6.3684   13.0193    4.7261 C   0  0  2  0  0  0  0  0  0  0  0  0
    5.0740   12.2788    4.4801 C   0  0  2  0  0  0  0  0  0  0  0  0
    5.0764   11.7948    3.1308 N   0  0  0  0  0  0  0  0  0  0  0  0
    3.7299   11.8463    2.6080 C   0  0  2  0  0  0  0  0  0  0  0  0
    3.2996   13.2992    2.4305 C   0  0  0  0  0  3  0  0  0  0  0  0
    4.5115   14.1914    2.2769 C   0  0  2  0  0  0  0  0  0  0  0  0
    5.5285   13.5308    1.6115 O   0  0  0  0  0  0  0  0  0  0  0  0
    4.9960   14.7267    3.5935 C   0  0  0  0  0  3  0  0  0  0  0  0
    6.4016   14.2356    3.8658 C   0  0  1  0  0  0  0  0  0  0  0  0
    7.2438   15.2882    4.5398 C   0  0  0  0  0  0  0  0  0  0  0  0
    8.2984   14.7124    5.4417 C   0  0  0  0  0  0  0  0  0  0  0  0
    3.8598   13.0603    4.8566 C   0  0  0  0  0  3  0  0  0  0  0  0
    2.6631   12.1339    4.8079 C   0  0  0  0  0  3  0  0  0  0  0  0
    2.8237   11.1870    3.6317 C   0  0  2  0  0  0  0  0  0  0  0  0
    3.5541    9.9639    4.1604 C   0  0  0  0  0  0  0  0  0  0  0  0
    2.8992    8.6882    3.7393 C   0  0  0  0  0  0  0  0  0  0  0  0
    2.3381    7.7390    5.2459 Si  0  0  0  0  0  3  0  0  0  0  0  0
    3.2411    6.1155    5.3993 C   0  0  2  0  0  0  0  0  0  0  0  0
    2.2684    4.9595    5.3660 C   0  0  0  0  0  2  0  0  0  0  0  0
    3.6924    6.4378    6.8004 C   0  0  0  0  0  3  0  0  0  0  0  0
    3.5761    7.9180    6.6164 C   0  0  1  0  0  0  0  0  0  0  0  0
    4.7130    8.5910    6.2267 O   0  0  0  0  0  0  0  0  0  0  0  0
    5.6007    8.6125    7.2888 C   0  0  0  0  0  3  0  0  0  0  0  0
    4.9658    9.0982    8.5751 C   0  0  2  0  0  0  0  0  0  0  0  0
    3.6153    9.7063    8.2566 C   0  0  0  0  0  3  0  0  0  0  0  0
    3.9279   11.1699    8.2069 C   0  0  0  0  0  3  0  0  0  0  0  0
    5.3316   11.2706    8.1323 O   0  0  0  0  0  0  0  0  0  0  0  0
    5.7367   10.3122    9.0418 C   0  0  2  0  0  0  0  0  0  0  0  0
  2  1  1  1
  2  3  1  0
  3  4  1  0
  4  5  1  0
  5  6  1  0
  6  7  1  0
  7  8  1  0
  4  9  1  1
  9 10  1  0
 10 11  1  1
 11 12  1  0
 12 13  1  0
 13 14  1  0
 14 15  1  1
 14 16  1  0
 16 17  1  0
 17 18  1  0
 18 19  1  0
 19 20  1  1
 20 21  1  0
 21 22  1  1
 21 23  1  0
 23 24  1  6
 24 25  1  0
 25 26  1  0
 27 26  1  1
 27 28  1  0
 28 29  1  6
 29 30  1  0
 30 31  1  0
 31 32  1  0
 32 33  1  0
 34 33  1  6
 34 35  1  0
 35 36  1  0
 36 37  1  0
 37 38  1  1
 38 39  1  0
 39 40  1  1
 39 41  1  0
 41 42  1  0
 42 43  1  1
 43 44  1  0
 35 45  1  6
 45 46  1  0
 47 46  1  1
 47 48  1  0
 48 49  1  0
 49 50  1  0
 50 51  1  0
 51 52  1  1
 51 53  1  0
 54 53  1  6
 54 55  1  0
 55 56  1  0
 56 57  1  0
 57 58  1  6
 58 59  1  0
 59 60  1  0
 61 60  1  6
  8  2  1  0
 10  2  1  0
 19 14  1  0
 27 23  1  0
 61 28  1  0
 42 34  1  0
 47 37  1  0
 54 50  1  0
 61 57  1  0
M  RAD  8   8   2  13   2  15   3  30   2  31   2  33   2  38   2  41   2
M  RAD  8  45   2  46   2  50   2  52   3  53   2  56   2  58   2  59   2
M  END
>  <docking_score>  (1) 
44.874000000000002

$$$$
