
     RDKit          3D

 29 28  0  0  0  0  0  0  0  0999 V2000
   18.3975   -3.5330   -1.5188 C   0  0  0  0  0  0  0  0  0  0  0  0
   17.5818   -3.8420   -2.7610 C   0  0  0  0  0  0  0  0  0  0  0  0
   18.3321   -4.9049   -3.5430 C   0  0  2  0  0  0  0  0  0  0  0  0
   18.3832   -6.2012   -2.7770 C   0  0  0  0  0  0  0  0  0  0  0  0
   19.6853   -4.3765   -3.8168 C   0  0  0  0  0  0  0  0  0  0  0  0
   20.5052   -4.2204   -2.8832 O   0  0  0  0  0  0  0  0  0  0  0  0
   20.0234   -4.0601   -5.1214 O   0  0  0  0  0  0  0  0  0  0  0  0
   20.9774   -4.7867   -5.8547 C   0  0  0  0  0  3  0  0  0  0  0  0
   20.7356   -6.2806   -5.6569 C   0  0  0  0  0  0  0  0  0  0  0  0
   20.0096   -6.7660   -6.8929 C   0  0  2  0  0  0  0  0  0  0  0  0
   20.0770   -5.8469   -7.9268 O   0  0  0  0  0  0  0  0  0  0  0  0
   18.6039   -7.1770   -6.5627 C   0  0  0  0  0  0  0  0  0  0  0  0
   17.6992   -5.9964   -6.8956 C   0  0  0  0  0  3  0  0  0  0  0  0
   16.3960   -6.2530   -6.2522 C   0  0  0  0  0  0  0  0  0  0  0  0
   15.3043   -5.7208   -6.7545 C   0  0  0  0  0  0  0  0  0  0  0  0
   15.3719   -4.8633   -7.9644 C   0  0  2  0  0  0  0  0  0  0  0  0
   16.7560   -4.9572   -8.6022 C   0  0  0  0  0  0  0  0  0  0  0  0
   15.2980   -3.3912   -7.4204 C   0  0  2  0  0  0  0  0  0  0  0  0
   16.0392   -2.5515   -8.3558 C   0  0  0  0  0  0  0  0  0  0  0  0
   17.3261   -1.9755   -8.1103 C   0  0  0  0  0  0  0  0  0  0  0  0
   18.5231   -2.5976   -8.7380 C   0  0  0  0  0  0  0  0  0  0  0  0
   19.7984   -1.9216   -8.3091 C   0  0  0  0  0  0  0  0  0  0  0  0
   19.6600   -1.3327   -7.0402 O   0  0  0  0  0  0  0  0  0  0  0  0
   15.6320   -3.4061   -6.1051 O   0  0  0  0  0  0  0  0  0  0  0  0
   15.9941   -2.1720   -5.6385 C   0  0  0  0  0  3  0  0  0  0  0  0
   15.2599   -1.8462   -4.3568 C   0  0  0  0  0  0  0  0  0  0  0  0
   13.8771   -1.3738   -4.6920 C   0  0  0  0  0  0  0  0  0  0  0  0
   13.8891    0.0844   -4.9288 C   0  0  0  0  0  0  0  0  0  0  0  0
   14.7170    0.6674   -5.5828 O   0  0  0  0  0  0  0  0  0  0  0  0
  1  2  1  0
  2  3  1  0
  3  4  1  1
  3  5  1  0
  5  6  2  0
  5  7  1  0
  7  8  1  0
  8  9  1  0
  9 10  1  0
 10 11  1  6
 10 12  1  0
 12 13  1  0
 13 14  1  0
 14 15  2  3
 15 16  1  0
 16 17  1  1
 16 18  1  0
 18 19  1  6
 19 20  1  0
 20 21  1  0
 21 22  1  0
 22 23  1  0
 18 24  1  0
 24 25  1  0
 25 26  1  0
 26 27  1  0
 27 28  1  0
 28 29  2  0
M  RAD  3   8   2  13   2  25   2
M  END
>  <docking_score>  (1) 
-3.073

$$$$

     RDKit          3D

 29 28  0  0  0  0  0  0  0  0999 V2000
   16.7417   -4.1921   -1.5092 C   0  0  0  0  0  0  0  0  0  0  0  0
   16.2599   -2.7559   -1.4136 C   0  0  0  0  0  0  0  0  0  0  0  0
   16.9275   -1.9786   -2.5336 C   0  0  2  0  0  0  0  0  0  0  0  0
   16.3971   -2.4073   -3.8769 C   0  0  0  0  0  0  0  0  0  0  0  0
   18.3836   -2.2076   -2.4209 C   0  0  0  0  0  0  0  0  0  0  0  0
   18.9142   -2.3697   -1.2981 O   0  0  0  0  0  0  0  0  0  0  0  0
   19.1428   -2.2386   -3.5780 O   0  0  0  0  0  0  0  0  0  0  0  0
   19.7490   -1.0911   -4.1179 C   0  0  0  0  0  3  0  0  0  0  0  0
   20.6538   -1.4965   -5.2782 C   0  0  0  0  0  0  0  0  0  0  0  0
   19.9217   -1.1174   -6.5472 C   0  0  2  0  0  0  0  0  0  0  0  0
   18.6077   -0.7570   -6.2983 O   0  0  0  0  0  0  0  0  0  0  0  0
   20.0489   -2.1967   -7.5830 C   0  0  0  0  0  0  0  0  0  0  0  0
   20.9894   -3.2548   -7.0180 C   0  0  0  0  0  3  0  0  0  0  0  0
   20.2134   -4.0525   -6.0486 C   0  0  0  0  0  0  0  0  0  0  0  0
   19.9634   -5.3185   -6.2972 C   0  0  0  0  0  0  0  0  0  0  0  0
   20.4559   -5.9527   -7.5459 C   0  0  2  0  0  0  0  0  0  0  0  0
   20.3151   -4.9873   -8.7203 C   0  0  0  0  0  0  0  0  0  0  0  0
   19.4182   -7.0908   -7.8568 C   0  0  2  0  0  0  0  0  0  0  0  0
   18.3934   -6.5116   -8.7191 C   0  0  0  0  0  0  0  0  0  0  0  0
   17.0602   -6.1836   -8.3151 C   0  0  0  0  0  0  0  0  0  0  0  0
   16.7317   -4.7658   -8.0054 C   0  0  0  0  0  0  0  0  0  0  0  0
   15.2941   -4.4413   -8.3137 C   0  0  0  0  0  0  0  0  0  0  0  0
   14.6070   -4.0277   -7.1592 O   0  0  0  0  0  0  0  0  0  0  0  0
   19.0701   -7.6812   -6.6856 O   0  0  0  0  0  0  0  0  0  0  0  0
   18.0648   -8.5972   -6.8345 C   0  0  0  0  0  3  0  0  0  0  0  0
   17.3937   -8.8779   -5.5083 C   0  0  0  0  0  0  0  0  0  0  0  0
   16.5228   -7.7130   -5.1449 C   0  0  0  0  0  0  0  0  0  0  0  0
   17.3457   -6.6359   -4.5573 C   0  0  0  0  0  0  0  0  0  0  0  0
   17.7661   -6.6311   -3.4275 O   0  0  0  0  0  0  0  0  0  0  0  0
  1  2  1  0
  2  3  1  0
  3  4  1  6
  3  5  1  0
  5  6  2  0
  5  7  1  0
  7  8  1  0
  8  9  1  0
  9 10  1  0
 10 11  1  1
 10 12  1  0
 12 13  1  0
 13 14  1  0
 14 15  2  3
 15 16  1  0
 16 17  1  6
 16 18  1  0
 18 19  1  1
 19 20  1  0
 20 21  1  0
 21 22  1  0
 22 23  1  0
 18 24  1  0
 24 25  1  0
 25 26  1  0
 26 27  1  0
 27 28  1  0
 28 29  2  0
M  RAD  3   8   2  13   2  25   2
M  END
>  <docking_score>  (2) 
-2.3860000000000001

$$$$

     RDKit          3D

 29 28  0  0  0  0  0  0  0  0999 V2000
   18.4582   -6.2910   -4.8748 C   0  0  0  0  0  0  0  0  0  0  0  0
   17.4864   -6.6531   -5.9832 C   0  0  0  0  0  0  0  0  0  0  0  0
   17.5252   -8.1619   -6.1448 C   0  0  2  0  0  0  0  0  0  0  0  0
   18.2467   -8.8085   -4.9911 C   0  0  0  0  0  0  0  0  0  0  0  0
   18.1867   -8.4493   -7.4351 C   0  0  0  0  0  0  0  0  0  0  0  0
   17.9567   -9.5216   -8.0399 O   0  0  0  0  0  0  0  0  0  0  0  0
   19.0611   -7.5114   -7.9568 O   0  0  0  0  0  0  0  0  0  0  0  0
   18.7175   -6.1571   -8.1095 C   0  0  0  0  0  3  0  0  0  0  0  0
   17.2363   -6.0486   -8.4612 C   0  0  0  0  0  0  0  0  0  0  0  0
   16.8545   -4.5966   -8.2713 C   0  0  2  0  0  0  0  0  0  0  0  0
   17.8355   -3.7382   -8.7395 O   0  0  0  0  0  0  0  0  0  0  0  0
   16.4677   -4.3255   -6.8461 C   0  0  0  0  0  0  0  0  0  0  0  0
   15.0311   -3.8163   -6.8581 C   0  0  0  0  0  3  0  0  0  0  0  0
   15.0742   -2.4052   -7.2882 C   0  0  0  0  0  0  0  0  0  0  0  0
   15.6840   -1.5133   -6.5398 C   0  0  0  0  0  0  0  0  0  0  0  0
   16.3301   -1.9146   -5.2649 C   0  0  2  0  0  0  0  0  0  0  0  0
   15.8541   -1.0167   -4.1255 C   0  0  0  0  0  0  0  0  0  0  0  0
   17.8449   -1.5382   -5.4443 C   0  0  2  0  0  0  0  0  0  0  0  0
   18.6098   -2.4060   -4.5548 C   0  0  0  0  0  0  0  0  0  0  0  0
   18.6042   -2.3376   -3.1253 C   0  0  0  0  0  0  0  0  0  0  0  0
   18.3264   -3.5756   -2.3480 C   0  0  0  0  0  0  0  0  0  0  0  0
   16.8492   -3.8243   -2.1956 C   0  0  0  0  0  0  0  0  0  0  0  0
   16.5991   -5.1160   -1.7007 O   0  0  0  0  0  0  0  0  0  0  0  0
   17.9627   -0.1896   -5.3487 O   0  0  0  0  0  0  0  0  0  0  0  0
   19.1166    0.1965   -4.7230 C   0  0  0  0  0  3  0  0  0  0  0  0
   20.1283    0.7023   -5.7274 C   0  0  0  0  0  0  0  0  0  0  0  0
   20.4201    2.1451   -5.4431 C   0  0  0  0  0  0  0  0  0  0  0  0
   21.3740    2.2519   -4.3200 C   0  0  0  0  0  0  0  0  0  0  0  0
   21.0783    2.5693   -3.1954 O   0  0  0  0  0  0  0  0  0  0  0  0
  1  2  1  0
  2  3  1  0
  3  4  1  1
  3  5  1  0
  5  6  2  0
  5  7  1  0
  7  8  1  0
  8  9  1  0
  9 10  1  0
 10 11  1  1
 10 12  1  0
 12 13  1  0
 13 14  1  0
 14 15  2  3
 15 16  1  0
 16 17  1  1
 16 18  1  0
 18 19  1  1
 19 20  1  0
 20 21  1  0
 21 22  1  0
 22 23  1  0
 18 24  1  0
 24 25  1  0
 25 26  1  0
 26 27  1  0
 27 28  1  0
 28 29  2  0
M  RAD  3   8   2  13   2  25   2
M  END
>  <docking_score>  (3) 
-1.5580000000000001

$$$$
