
     RDKit          3D

 16 15  0  0  0  0  0  0  0  0999 V2000
   17.8939   -1.5443   -2.2869 C   0  0  0  0  0  0  0  0  0  0  0  0
   17.8905   -3.0295   -2.5369 C   0  0  0  0  0  0  0  0  0  0  0  0
   19.2191   -3.6537   -2.1039 C   0  0  0  0  0  0  0  0  0  0  0  0
   16.7402   -3.6449   -1.7606 C   0  0  0  0  0  0  0  0  0  0  0  0
   16.3646   -4.9369   -2.4694 C   0  0  0  0  0  3  0  0  0  0  0  0
   16.1220   -4.7099   -3.9271 C   0  0  0  0  0  0  0  0  0  0  0  0
   15.8677   -6.0227   -4.6752 C   0  0  1  0  0  0  0  0  0  0  0  0
   14.5750   -5.8014   -5.4681 C   0  0  0  0  0  0  0  0  0  0  0  0
   16.9775   -6.1104   -5.7292 C   0  0  0  0  0  0  0  0  0  0  0  0
   17.5110   -4.7122   -5.9001 C   0  0  0  0  0  0  0  0  0  0  0  0
   17.4354   -4.2338   -7.3262 C   0  0  0  0  0  0  0  0  0  0  0  0
   16.6336   -2.9502   -7.3447 C   0  0  2  0  0  0  0  0  0  0  0  0
   16.6226   -2.3400   -8.7305 C   0  0  0  0  0  0  0  0  0  0  0  0
   17.1170   -1.9816   -6.3283 C   0  0  0  0  0  0  0  0  0  0  0  0
   16.3114   -1.1554   -5.6748 C   0  0  0  0  0  0  0  0  0  0  0  0
   14.8549   -1.1134   -5.8896 C   0  0  0  0  0  0  0  0  0  0  0  0
  1  2  1  0
  2  3  1  0
  2  4  1  0
  4  5  1  0
  5  6  1  0
  6  7  1  0
  7  8  1  6
  7  9  1  0
  9 10  1  0
 10 11  1  0
 11 12  1  0
 12 13  1  6
 12 14  1  0
 14 15  2  3
 15 16  1  0
M  RAD  1   5   2
M  END
>  <docking_score>  (1) 
-3.7799999999999998

$$$$

     RDKit          3D

 16 15  0  0  0  0  0  0  0  0999 V2000
   18.5477   -1.4595   -6.4247 C   0  0  0  0  0  0  0  0  0  0  0  0
   19.8577   -0.7508   -6.2015 C   0  0  0  0  0  0  0  0  0  0  0  0
   19.6390    0.5678   -5.4561 C   0  0  0  0  0  0  0  0  0  0  0  0
   20.7683   -1.6647   -5.4015 C   0  0  0  0  0  0  0  0  0  0  0  0
   19.8822   -2.4616   -4.4568 C   0  0  0  0  0  3  0  0  0  0  0  0
   20.4513   -2.4990   -3.0748 C   0  0  0  0  0  0  0  0  0  0  0  0
   19.4378   -2.0281   -2.0266 C   0  0  1  0  0  0  0  0  0  0  0  0
   20.1116   -0.8609   -1.2970 C   0  0  0  0  0  0  0  0  0  0  0  0
   18.2917   -1.3968   -2.8255 C   0  0  0  0  0  0  0  0  0  0  0  0
   17.0153   -1.8604   -2.1738 C   0  0  0  0  0  0  0  0  0  0  0  0
   15.9826   -2.3065   -3.1753 C   0  0  0  0  0  0  0  0  0  0  0  0
   16.4008   -3.6622   -3.7025 C   0  0  2  0  0  0  0  0  0  0  0  0
   15.4540   -4.1365   -4.7849 C   0  0  0  0  0  0  0  0  0  0  0  0
   16.5271   -4.6641   -2.6138 C   0  0  0  0  0  0  0  0  0  0  0  0
   17.5135   -5.5483   -2.5544 C   0  0  0  0  0  0  0  0  0  0  0  0
   18.5853   -5.6278   -3.5616 C   0  0  0  0  0  0  0  0  0  0  0  0
  1  2  1  0
  2  3  1  0
  2  4  1  0
  4  5  1  0
  5  6  1  0
  6  7  1  0
  7  8  1  1
  7  9  1  0
  9 10  1  0
 10 11  1  0
 11 12  1  0
 12 13  1  6
 12 14  1  0
 14 15  2  3
 15 16  1  0
M  RAD  1   5   2
M  END
>  <docking_score>  (2) 
-3.5739999999999998

$$$$

     RDKit          3D

 16 15  0  0  0  0  0  0  0  0999 V2000
   16.7576   -3.7623   -1.5886 C   0  0  0  0  0  0  0  0  0  0  0  0
   16.9082   -2.5613   -2.4848 C   0  0  0  0  0  0  0  0  0  0  0  0
   15.8240   -1.5237   -2.1850 C   0  0  0  0  0  0  0  0  0  0  0  0
   18.2861   -1.9648   -2.2615 C   0  0  0  0  0  0  0  0  0  0  0  0
   19.2629   -2.7707   -3.1037 C   0  0  0  0  0  3  0  0  0  0  0  0
   20.0601   -1.8885   -4.0100 C   0  0  0  0  0  0  0  0  0  0  0  0
   19.2664   -0.6532   -4.4481 C   0  0  1  0  0  0  0  0  0  0  0  0
   20.2885    0.4859   -4.5289 C   0  0  0  0  0  0  0  0  0  0  0  0
   18.8544   -0.9292   -5.8988 C   0  0  0  0  0  0  0  0  0  0  0  0
   17.3595   -1.1137   -5.8869 C   0  0  0  0  0  0  0  0  0  0  0  0
   16.8674   -1.9293   -7.0535 C   0  0  0  0  0  0  0  0  0  0  0  0
   16.0937   -3.1082   -6.5037 C   0  0  2  0  0  0  0  0  0  0  0  0
   14.9254   -2.6420   -5.6607 C   0  0  0  0  0  0  0  0  0  0  0  0
   16.9692   -4.0414   -5.7503 C   0  0  0  0  0  0  0  0  0  0  0  0
   16.9376   -5.3567   -5.9159 C   0  0  0  0  0  0  0  0  0  0  0  0
   16.0315   -6.0274   -6.8638 C   0  0  0  0  0  0  0  0  0  0  0  0
  1  2  1  0
  2  3  1  0
  2  4  1  0
  4  5  1  0
  5  6  1  0
  6  7  1  0
  7  8  1  6
  7  9  1  0
  9 10  1  0
 10 11  1  0
 11 12  1  0
 12 13  1  1
 12 14  1  0
 14 15  2  3
 15 16  1  0
M  RAD  1   5   2
M  END
>  <docking_score>  (3) 
-3.2690000000000001

$$$$
