
     RDKit          3D

 28 29  0  0  0  0  0  0  0  0999 V2000
   21.0163   -0.0104   -7.0149 C   0  0  0  0  0  0  0  0  0  0  0  0
   20.2626   -1.0211   -6.1586 C   0  0  0  0  0  0  0  0  0  0  0  0
   19.5170   -1.9389   -7.1333 C   0  0  0  0  0  0  0  0  0  0  0  0
   21.2771   -1.8333   -5.3837 C   0  0  0  0  0  0  0  0  0  0  0  0
   20.5709   -2.8750   -4.5711 C   0  0  0  0  0  0  0  0  0  0  0  0
   20.8036   -2.7653   -3.0997 C   0  0  0  0  0  0  0  0  0  0  0  0
   20.0388   -3.8089   -2.3526 C   0  0  1  0  0  0  0  0  0  0  0  0
   19.6300   -3.3431   -0.9804 C   0  0  0  0  0  0  0  0  0  0  0  0
   18.8193   -4.2546   -3.1571 C   0  0  1  0  0  0  0  0  0  0  0  0
   18.5649   -5.7032   -2.8701 C   0  0  0  0  0  0  0  0  0  0  0  0
   19.5669   -6.5642   -3.5818 C   0  0  0  0  0  0  0  0  0  0  0  0
   19.0176   -6.8532   -4.9806 C   0  0  2  0  0  0  0  0  0  0  0  0
   19.0596   -5.6108   -5.8093 C   0  0  0  0  0  0  0  0  0  0  0  0
   17.6314   -7.4119   -4.8049 C   0  0  0  0  0  0  0  0  0  0  0  0
   16.8043   -7.3624   -6.0525 C   0  0  2  0  0  0  0  0  0  0  0  0
   17.5615   -7.7250   -7.2936 C   0  0  0  0  0  0  0  0  0  0  0  0
   15.9721   -6.1322   -6.1912 C   0  0  0  0  0  0  0  0  0  0  0  0
   14.6483   -6.2144   -5.4895 C   0  0  0  0  0  0  0  0  0  0  0  0
   13.8559   -4.9620   -5.8604 C   0  0  2  0  0  0  0  0  0  0  0  0
   13.2467   -5.2498   -7.0992 O   0  0  0  0  0  0  0  0  0  0  0  0
   14.8645   -3.8466   -6.0387 C   0  0  0  0  0  0  0  0  0  0  0  0
   15.7726   -3.8197   -4.8209 C   0  0  0  0  0  0  0  0  0  0  0  0
   16.6366   -2.5767   -4.8812 C   0  0  1  0  0  0  0  0  0  0  0  0
   15.7403   -1.4016   -5.2861 C   0  0  0  0  0  0  0  0  0  0  0  0
   17.1862   -2.2695   -3.5256 C   0  0  1  0  0  0  0  0  0  0  0  0
   16.1086   -2.0865   -2.5080 C   0  0  0  0  0  0  0  0  0  0  0  0
   16.6971   -3.2600   -1.8624 C   0  0  0  0  0  0  0  0  0  0  0  0
   17.6408   -3.4139   -2.7608 C   0  0  0  0  0  0  0  0  0  0  0  0
  1  2  1  0
  2  3  1  0
  2  4  1  0
  4  5  1  0
  5  6  1  0
  6  7  1  0
  7  8  1  1
  7  9  1  0
  9 10  1  1
 10 11  1  0
 11 12  1  0
 12 13  1  6
 12 14  1  0
 14 15  1  0
 15 16  1  6
 15 17  1  0
 17 18  1  0
 18 19  1  0
 19 20  1  6
 19 21  1  0
 21 22  1  0
 22 23  1  0
 23 24  1  1
 23 25  1  0
 25 26  1  1
 26 27  1  0
 27 28  2  0
 28  9  1  0
 28 25  1  0
M  END
>  <docking_score>  (1) 
-5.9119999999999999

$$$$

     RDKit          3D

 28 29  0  0  0  0  0  0  0  0999 V2000
   20.2227   -0.8790   -1.2088 C   0  0  0  0  0  0  0  0  0  0  0  0
   20.2388   -1.9601   -2.2829 C   0  0  0  0  0  0  0  0  0  0  0  0
   20.3734   -3.2965   -1.5454 C   0  0  0  0  0  0  0  0  0  0  0  0
   18.9131   -1.9222   -3.0112 C   0  0  0  0  0  0  0  0  0  0  0  0
   18.9771   -0.9149   -4.1180 C   0  0  0  0  0  0  0  0  0  0  0  0
   19.9399   -1.2615   -5.2062 C   0  0  0  0  0  0  0  0  0  0  0  0
   19.2231   -1.6360   -6.4625 C   0  0  1  0  0  0  0  0  0  0  0  0
   20.0903   -1.4765   -7.6829 C   0  0  0  0  0  0  0  0  0  0  0  0
   18.6855   -3.0623   -6.3648 C   0  0  1  0  0  0  0  0  0  0  0  0
   17.7663   -3.3035   -7.5235 C   0  0  0  0  0  0  0  0  0  0  0  0
   16.4543   -2.6081   -7.3076 C   0  0  0  0  0  0  0  0  0  0  0  0
   15.5483   -3.5619   -6.5258 C   0  0  2  0  0  0  0  0  0  0  0  0
   16.0423   -3.6953   -5.1221 C   0  0  0  0  0  0  0  0  0  0  0  0
   15.5213   -4.8641   -7.2797 C   0  0  0  0  0  0  0  0  0  0  0  0
   15.0314   -6.0187   -6.4613 C   0  0  2  0  0  0  0  0  0  0  0  0
   13.8634   -5.6844   -5.5841 C   0  0  0  0  0  0  0  0  0  0  0  0
   16.1084   -6.7824   -5.7670 C   0  0  0  0  0  0  0  0  0  0  0  0
   16.7443   -7.8421   -6.6180 C   0  0  0  0  0  0  0  0  0  0  0  0
   17.6966   -8.6351   -5.7247 C   0  0  2  0  0  0  0  0  0  0  0  0
   16.8969   -9.5988   -5.0764 O   0  0  0  0  0  0  0  0  0  0  0  0
   18.2456   -7.6618   -4.7028 C   0  0  0  0  0  0  0  0  0  0  0  0
   18.7605   -6.4343   -5.4354 C   0  0  0  0  0  0  0  0  0  0  0  0
   19.5104   -5.5566   -4.4543 C   0  0  1  0  0  0  0  0  0  0  0  0
   20.4057   -6.4633   -3.6031 C   0  0  0  0  0  0  0  0  0  0  0  0
   20.4058   -4.6141   -5.1918 C   0  0  1  0  0  0  0  0  0  0  0  0
   21.3763   -5.3304   -6.0724 C   0  0  0  0  0  0  0  0  0  0  0  0
   20.6895   -4.6461   -7.1680 C   0  0  0  0  0  0  0  0  0  0  0  0
   19.8405   -4.0205   -6.3873 C   0  0  0  0  0  0  0  0  0  0  0  0
  1  2  1  0
  2  3  1  0
  2  4  1  0
  4  5  1  0
  5  6  1  0
  6  7  1  0
  7  8  1  6
  7  9  1  0
  9 10  1  6
 10 11  1  0
 11 12  1  0
 12 13  1  1
 12 14  1  0
 14 15  1  0
 15 16  1  1
 15 17  1  0
 17 18  1  0
 18 19  1  0
 19 20  1  1
 19 21  1  0
 21 22  1  0
 22 23  1  0
 23 24  1  1
 23 25  1  0
 25 26  1  6
 26 27  1  0
 27 28  2  0
 28  9  1  0
 28 25  1  0
M  END
>  <docking_score>  (2) 
-4.6059999999999999

$$$$

     RDKit          3D

 28 29  0  0  0  0  0  0  0  0999 V2000
   17.2616   -9.3474   -5.9413 C   0  0  0  0  0  0  0  0  0  0  0  0
   17.3654   -7.8956   -6.3931 C   0  0  0  0  0  0  0  0  0  0  0  0
   17.4934   -7.0566   -5.1172 C   0  0  0  0  0  0  0  0  0  0  0  0
   18.6250   -7.7466   -7.2181 C   0  0  0  0  0  0  0  0  0  0  0  0
   19.5988   -6.8690   -6.4932 C   0  0  0  0  0  0  0  0  0  0  0  0
   19.9794   -5.6313   -7.2378 C   0  0  0  0  0  0  0  0  0  0  0  0
   20.3533   -4.5301   -6.2998 C   0  0  1  0  0  0  0  0  0  0  0  0
   21.3819   -3.6027   -6.8905 C   0  0  0  0  0  0  0  0  0  0  0  0
   19.1113   -3.7534   -5.8671 C   0  0  1  0  0  0  0  0  0  0  0  0
   19.5432   -2.6185   -4.9890 C   0  0  0  0  0  0  0  0  0  0  0  0
   19.9176   -3.1215   -3.6256 C   0  0  0  0  0  0  0  0  0  0  0  0
   18.6436   -3.1536   -2.7786 C   0  0  2  0  0  0  0  0  0  0  0  0
   17.7439   -4.2468   -3.2559 C   0  0  0  0  0  0  0  0  0  0  0  0
   18.0226   -1.7852   -2.8610 C   0  0  0  0  0  0  0  0  0  0  0  0
   16.5849   -1.7549   -2.4428 C   0  0  2  0  0  0  0  0  0  0  0  0
   16.2887   -2.5951   -1.2380 C   0  0  0  0  0  0  0  0  0  0  0  0
   15.6145   -1.9396   -3.5606 C   0  0  0  0  0  0  0  0  0  0  0  0
   15.2799   -0.6704   -4.2879 C   0  0  0  0  0  0  0  0  0  0  0  0
   14.1638   -0.9929   -5.2799 C   0  0  2  0  0  0  0  0  0  0  0  0
   12.9645   -0.9169   -4.5419 O   0  0  0  0  0  0  0  0  0  0  0  0
   14.3876   -2.4190   -5.7374 C   0  0  0  0  0  0  0  0  0  0  0  0
   15.8359   -2.5627   -6.1735 C   0  0  0  0  0  0  0  0  0  0  0  0
   16.0158   -3.9117   -6.8391 C   0  0  1  0  0  0  0  0  0  0  0  0
   14.8290   -4.1308   -7.7835 C   0  0  0  0  0  0  0  0  0  0  0  0
   17.2544   -3.9083   -7.6758 C   0  0  1  0  0  0  0  0  0  0  0  0
   17.2325   -2.8331   -8.7119 C   0  0  0  0  0  0  0  0  0  0  0  0
   18.3910   -2.2984   -7.9962 C   0  0  0  0  0  0  0  0  0  0  0  0
   18.4033   -3.2468   -7.0896 C   0  0  0  0  0  0  0  0  0  0  0  0
  1  2  1  0
  2  3  1  0
  2  4  1  0
  4  5  1  0
  5  6  1  0
  6  7  1  0
  7  8  1  6
  7  9  1  0
  9 10  1  1
 10 11  1  0
 11 12  1  0
 12 13  1  6
 12 14  1  0
 14 15  1  0
 15 16  1  1
 15 17  1  0
 17 18  1  0
 18 19  1  0
 19 20  1  1
 19 21  1  0
 21 22  1  0
 22 23  1  0
 23 24  1  6
 23 25  1  0
 25 26  1  6
 26 27  1  0
 27 28  2  0
 28  9  1  0
 28 25  1  0
M  END
>  <docking_score>  (3) 
-4.2080000000000002

$$$$
