
     RDKit          3D

 38 39  0  0  0  0  0  0  0  0999 V2000
    3.8069    5.7670    5.7417 C   0  0  1  0  0  0  0  0  0  0  0  0
    3.2468    6.1973    7.0740 C   0  0  1  0  0  0  0  0  0  0  0  0
    2.2576    5.2052    7.6363 C   0  0  0  0  0  0  0  0  0  0  0  0
    4.3296    6.5318    8.0715 C   0  0  0  0  0  0  0  0  0  0  0  0
    3.7977    7.6108    8.9957 C   0  0  0  0  0  0  0  0  0  0  0  0
    4.8306    8.7080    9.1978 C   0  0  0  0  0  0  0  0  0  0  0  0
    4.1883   10.0188    9.6030 C   0  0  1  0  0  0  0  0  0  0  0  0
    3.6012    9.9579   10.9991 C   0  0  0  0  0  0  0  0  0  0  0  0
    5.2867   11.0644    9.6259 C   0  0  0  0  0  3  0  0  0  0  0  0
    4.7173   12.3939   10.0160 C   0  0  0  0  0  0  0  0  0  0  0  0
    3.7939   12.9572    8.9599 C   0  0  0  0  0  0  0  0  0  0  0  0
    4.6192   13.7865    7.9956 C   0  0  2  0  0  0  0  0  0  0  0  0
    5.5491   14.6623    8.8286 C   0  0  0  0  0  0  0  0  0  0  0  0
    3.7677   14.7177    7.1667 C   0  0  0  0  0  3  0  0  0  0  0  0
    3.4748   14.0300    5.8574 C   0  0  0  0  0  0  0  0  0  0  0  0
    4.2333   14.7569    4.7677 C   0  0  2  0  0  0  0  0  0  0  0  0
    3.5779   16.0738    4.4275 C   0  0  0  0  0  2  0  0  0  0  0  0
    4.3110   13.8690    3.5378 C   0  0  2  0  0  0  0  0  0  0  0  0
    3.4909   14.4603    2.4111 C   0  0  0  0  0  0  0  0  0  0  0  0
    3.9085   12.4512    3.8643 C   0  0  0  0  0  0  0  0  0  0  0  0
    2.5169   12.3970    4.4048 C   0  0  0  0  0  0  0  0  0  0  0  0
    2.2605   11.1539    5.2125 C   0  0  0  0  0  0  0  0  0  0  0  0
    3.6051   10.5931    5.6652 C   0  0  0  0  0  0  0  0  0  0  0  0
    4.0280    9.4122    4.8089 C   0  0  1  0  0  0  0  0  0  0  0  0
    3.0357    9.2032    3.8768 O   0  0  0  0  0  0  0  0  0  0  0  0
    5.2847    9.8346    4.0490 C   0  0  0  0  0  0  0  0  0  0  0  0
    4.2807    8.2359    5.7045 C   0  0  0  0  0  0  0  0  0  0  0  0
    4.3813    6.9277    4.9682 C   0  0  2  0  0  0  0  0  0  0  0  0
    3.8883    6.9361    3.5582 C   0  0  0  0  0  2  0  0  0  0  0  0
    5.7052    6.1935    5.1632 C   0  0  2  0  0  0  0  0  0  0  0  0
    6.6252    6.9392    6.1350 C   0  0  0  0  0  0  0  0  0  0  0  0
    6.3932    5.9933    3.8604 C   0  0  0  0  0  2  0  0  0  0  0  0
    5.0740    5.1003    5.7864 N   0  0  0  0  0  0  0  0  0  0  0  0
    5.0558    3.8137    5.2212 C   0  0  0  0  0  0  0  0  0  0  0  0
    4.3200    3.6010    3.9584 C   0  0  0  0  0  3  0  0  0  0  0  0
    3.6402    4.8063    3.3961 C   0  0  0  0  0  0  0  0  0  0  0  0
    3.0931    4.4859    2.0129 C   0  0  0  0  0  0  0  0  0  0  0  0
    2.2584    5.8460    1.2796 Cl  0  0  0  0  0  0  0  0  0  0  0  0
  1  2  1  0
  2  3  1  1
  2  4  1  0
  4  5  1  0
  5  6  1  0
  6  7  1  0
  7  8  1  1
  7  9  1  0
  9 10  1  0
 10 11  1  0
 11 12  1  0
 12 13  1  1
 12 14  1  0
 14 15  1  0
 15 16  1  0
 16 17  1  6
 16 18  1  0
 18 19  1  6
 18 20  1  0
 20 21  1  0
 21 22  1  0
 22 23  1  0
 23 24  1  0
 24 25  1  0
 24 26  1  6
 24 27  1  0
 27 28  1  0
 28 29  1  6
 28 30  1  0
 30 31  1  1
 30 32  1  0
 30 33  1  0
 33 34  1  0
 34 35  1  0
 35 36  1  0
 36 37  1  0
 37 38  1  0
 28  1  1  0
  1 33  1  1
M  RAD  6   9   2  14   2  17   3  29   3  32   3  35   2
M  END
>  <docking_score>  (1) 
14.776999999999999

$$$$
