
     RDKit          3D

 15 15  0  0  0  0  0  0  0  0999 V2000
   16.8120   -2.1865   -8.0863 C   0  0  0  0  0  0  0  0  0  0  0  0
   16.0688   -1.7243   -6.8527 C   0  0  0  0  0  3  0  0  0  0  0  0
   15.5047   -2.8928   -6.0898 C   0  0  2  0  0  0  0  0  0  0  0  0
   14.6128   -2.5049   -4.9591 C   0  0  2  0  0  0  0  0  0  0  0  0
   14.0319   -1.2582   -5.2905 O   0  0  0  0  0  0  0  0  0  0  0  0
   15.3694   -2.2973   -3.6640 C   0  0  2  0  0  0  0  0  0  0  0  0
   15.0706   -1.1109   -3.0403 O   0  0  0  0  0  0  0  0  0  0  0  0
   16.8423   -2.4048   -4.0178 C   0  0  1  0  0  0  0  0  0  0  0  0
   17.6587   -2.0739   -2.9506 O   0  0  0  0  0  0  0  0  0  0  0  0
   17.0340   -3.7410   -4.4223 O   0  0  0  0  0  0  0  0  0  0  0  0
   16.6070   -3.8256   -5.7298 C   0  0  1  0  0  0  0  0  0  0  0  0
   16.4211   -5.2286   -6.2231 C   0  0  0  0  0  3  0  0  0  0  0  0
   15.9132   -6.0385   -5.0745 C   0  0  0  0  0  0  0  0  0  0  0  0
   14.7753   -6.6663   -5.2024 C   0  0  0  0  0  0  0  0  0  0  0  0
   14.3076   -7.4226   -4.1210 O   0  0  0  0  0  0  0  0  0  0  0  0
  1  2  1  0
  3  2  1  1
  3  4  1  0
  4  5  1  6
  4  6  1  0
  6  7  1  6
  6  8  1  0
  8  9  1  1
  8 10  1  0
 10 11  1  0
 11 12  1  1
 12 13  1  0
 13 14  2  3
 14 15  1  0
 11  3  1  0
M  RAD  2   2   2  12   2
M  END
>  <docking_score>  (1) 
-4.351

$$$$

     RDKit          3D

 15 15  0  0  0  0  0  0  0  0999 V2000
   17.0076   -2.2993   -7.7405 C   0  0  0  0  0  0  0  0  0  0  0  0
   16.5447   -1.7568   -6.4066 C   0  0  0  0  0  3  0  0  0  0  0  0
   15.3531   -2.5205   -5.8945 C   0  0  2  0  0  0  0  0  0  0  0  0
   14.2606   -1.6548   -5.3639 C   0  0  2  0  0  0  0  0  0  0  0  0
   14.3340   -0.4186   -6.0479 O   0  0  0  0  0  0  0  0  0  0  0  0
   14.4263   -1.3433   -3.8914 C   0  0  2  0  0  0  0  0  0  0  0  0
   14.3171   -0.0058   -3.5999 O   0  0  0  0  0  0  0  0  0  0  0  0
   15.7782   -1.9089   -3.4934 C   0  0  1  0  0  0  0  0  0  0  0  0
   16.1316   -1.5524   -2.2038 O   0  0  0  0  0  0  0  0  0  0  0  0
   15.6546   -3.3061   -3.6295 O   0  0  0  0  0  0  0  0  0  0  0  0
   15.8135   -3.5905   -4.9684 C   0  0  1  0  0  0  0  0  0  0  0  0
   15.3864   -4.9743   -5.3548 C   0  0  0  0  0  3  0  0  0  0  0  0
   16.5173   -5.8947   -5.0280 C   0  0  0  0  0  0  0  0  0  0  0  0
   16.4859   -7.1169   -5.4869 C   0  0  0  0  0  0  0  0  0  0  0  0
   17.5500   -7.9718   -5.1755 O   0  0  0  0  0  0  0  0  0  0  0  0
  1  2  1  0
  3  2  1  1
  3  4  1  0
  4  5  1  6
  4  6  1  0
  6  7  1  6
  6  8  1  0
  8  9  1  1
  8 10  1  0
 10 11  1  0
 11 12  1  6
 12 13  1  0
 13 14  2  3
 14 15  1  0
 11  3  1  0
M  RAD  2   2   2  12   2
M  END
>  <docking_score>  (2) 
-4.0119999999999996

$$$$

     RDKit          3D

 15 15  0  0  0  0  0  0  0  0999 V2000
   14.2110   -0.5490   -4.0059 C   0  0  0  0  0  0  0  0  0  0  0  0
   14.2410   -1.5385   -5.1495 C   0  0  0  0  0  3  0  0  0  0  0  0
   15.5208   -2.3307   -5.1479 C   0  0  2  0  0  0  0  0  0  0  0  0
   15.9647   -2.7682   -6.5029 C   0  0  2  0  0  0  0  0  0  0  0  0
   15.4713   -1.8228   -7.4325 O   0  0  0  0  0  0  0  0  0  0  0  0
   15.3844   -4.1087   -6.9021 C   0  0  2  0  0  0  0  0  0  0  0  0
   14.8082   -4.1056   -8.1486 O   0  0  0  0  0  0  0  0  0  0  0  0
   14.3930   -4.4770   -5.8124 C   0  0  1  0  0  0  0  0  0  0  0  0
   13.6662   -5.6103   -6.1324 O   0  0  0  0  0  0  0  0  0  0  0  0
   15.1673   -4.6687   -4.6506 O   0  0  0  0  0  0  0  0  0  0  0  0
   15.4272   -3.4173   -4.1354 C   0  0  1  0  0  0  0  0  0  0  0  0
   16.5082   -3.3956   -3.0974 C   0  0  0  0  0  3  0  0  0  0  0  0
   17.4719   -2.3208   -3.4837 C   0  0  0  0  0  0  0  0  0  0  0  0
   18.2755   -1.8400   -2.5734 C   0  0  0  0  0  0  0  0  0  0  0  0
   19.1748   -0.8334   -2.9447 O   0  0  0  0  0  0  0  0  0  0  0  0
  1  2  1  0
  3  2  1  6
  3  4  1  0
  4  5  1  6
  4  6  1  0
  6  7  1  6
  6  8  1  0
  8  9  1  6
  8 10  1  0
 10 11  1  0
 11 12  1  6
 12 13  1  0
 13 14  2  3
 14 15  1  0
 11  3  1  0
M  RAD  2   2   2  12   2
M  END
>  <docking_score>  (3) 
-3.8999999999999999

$$$$
