
     RDKit          3D

 29 30  0  0  0  0  0  0  0  0999 V2000
   20.9865   -4.0020   -0.8138 C   0  0  0  0  0  0  0  0  0  0  0  0
   20.1708   -3.4558   -1.9382 C   0  0  0  0  0  0  0  0  0  0  0  0
   19.5083   -2.1448   -1.6298 C   0  0  0  0  0  0  0  0  0  0  0  0
   19.1696   -4.4784   -2.4699 C   0  0  0  0  0  0  0  0  0  0  0  0
   18.9412   -4.3252   -3.9256 C   0  0  1  0  0  0  0  0  0  0  0  0
   19.8018   -5.1100   -4.8185 C   0  0  0  0  0  0  0  0  0  0  0  0
   20.1360   -6.4874   -4.3843 C   0  0  1  0  0  0  0  0  0  0  0  0
   21.2015   -6.5939   -3.3511 C   0  0  0  0  0  0  0  0  0  0  0  0
   18.9722   -7.3956   -4.1836 C   0  0  0  0  0  3  0  0  0  0  0  0
   19.1065   -8.5326   -5.2061 C   0  0  0  0  0  0  0  0  0  0  0  0
   19.7797   -7.9454   -6.4409 C   0  0  0  0  0  0  0  0  0  0  0  0
   18.7888   -8.0372   -7.6041 C   0  0  1  0  0  0  0  0  0  0  0  0
   18.6449   -9.5106   -7.9464 C   0  0  0  0  0  0  0  0  0  0  0  0
   17.4742   -7.5156   -7.0878 C   0  0  0  0  0  3  0  0  0  0  0  0
   17.2529   -6.0568   -7.4473 C   0  0  0  0  0  0  0  0  0  0  0  0
   18.0894   -5.1418   -6.5712 C   0  0  1  0  0  0  0  0  0  0  0  0
   18.9734   -4.3290   -7.4939 C   0  0  0  0  0  0  0  0  0  0  0  0
   17.2641   -4.2028   -5.7655 C   0  0  1  0  0  0  0  0  0  0  0  0
   15.8131   -4.2161   -6.1068 C   0  0  0  0  0  0  0  0  0  0  0  0
   15.4903   -3.0166   -6.9674 C   0  0  1  0  0  0  0  0  0  0  0  0
   14.9396   -3.4051   -8.1981 O   0  0  0  0  0  0  0  0  0  0  0  0
   14.5470   -2.0659   -6.3009 C   0  0  0  0  0  0  0  0  0  0  0  0
   15.3054   -1.1480   -5.3586 C   0  0  0  0  0  0  0  0  0  0  0  0
   14.9285   -1.4932   -3.9308 C   0  0  2  0  0  0  0  0  0  0  0  0
   15.4903   -0.5875   -3.0455 O   0  0  0  0  0  0  0  0  0  0  0  0
   15.4802   -2.8950   -3.6551 C   0  0  0  0  0  3  0  0  0  0  0  0
   16.9703   -2.9203   -3.7244 C   0  0  0  0  0  0  0  0  0  0  0  0
   17.5023   -4.2383   -4.3011 C   0  0  2  0  0  0  0  0  0  0  0  0
   16.6921   -5.3411   -3.6122 C   0  0  0  0  0  2  0  0  0  0  0  0
  1  2  1  0
  2  3  1  0
  2  4  1  0
  5  4  1  1
  5  6  1  0
  6  7  1  0
  7  8  1  1
  7  9  1  0
  9 10  1  0
 10 11  1  0
 11 12  1  0
 12 13  1  1
 12 14  1  0
 14 15  1  0
 15 16  1  0
 16 17  1  6
 16 18  1  0
 18 19  1  1
 19 20  1  0
 20 21  1  6
 20 22  1  0
 22 23  1  0
 23 24  1  0
 24 25  1  1
 24 26  1  0
 26 27  1  0
 27 28  1  0
 28 29  1  1
 28  5  1  0
 28 18  1  0
M  RAD  4   9   2  14   2  26   2  29   3
M  END
>  <docking_score>  (1) 
-5.3360000000000003

$$$$

     RDKit          3D

 29 30  0  0  0  0  0  0  0  0999 V2000
    3.8608    6.4632    3.0555 C   0  0  0  0  0  0  0  0  0  0  0  0
    3.2176    7.6418    3.7074 C   0  0  0  0  0  0  0  0  0  0  0  0
    2.5973    8.6092    2.7418 C   0  0  0  0  0  0  0  0  0  0  0  0
    4.1621    8.3465    4.6782 C   0  0  0  0  0  0  0  0  0  0  0  0
    3.8882    9.8001    4.7609 C   0  0  1  0  0  0  0  0  0  0  0  0
    2.9451   10.2398    5.7958 C   0  0  0  0  0  0  0  0  0  0  0  0
    3.0173    9.5464    7.1040 C   0  0  1  0  0  0  0  0  0  0  0  0
    2.3693    8.2079    7.1576 C   0  0  0  0  0  0  0  0  0  0  0  0
    4.3277    9.6394    7.8065 C   0  0  0  0  0  3  0  0  0  0  0  0
    4.0836   10.4019    9.1163 C   0  0  0  0  0  0  0  0  0  0  0  0
    2.9615   11.3984    8.8502 C   0  0  0  0  0  0  0  0  0  0  0  0
    3.5344   12.8075    9.0229 C   0  0  1  0  0  0  0  0  0  0  0  0
    3.8244   12.9879   10.5035 C   0  0  0  0  0  0  0  0  0  0  0  0
    4.8290   12.8396    8.2547 C   0  0  0  0  0  3  0  0  0  0  0  0
    4.6605   13.4353    6.8681 C   0  0  0  0  0  0  0  0  0  0  0  0
    3.9935   12.4510    5.9243 C   0  0  1  0  0  0  0  0  0  0  0  0
    2.7331   13.1137    5.4088 C   0  0  0  0  0  0  0  0  0  0  0  0
    4.8487   12.1002    4.7590 C   0  0  1  0  0  0  0  0  0  0  0  0
    6.0955   12.9097    4.6493 C   0  0  0  0  0  0  0  0  0  0  0  0
    5.9100   13.9740    3.5926 C   0  0  1  0  0  0  0  0  0  0  0  0
    6.1045   15.2585    4.1226 O   0  0  0  0  0  0  0  0  0  0  0  0
    6.8291   13.7945    2.4261 C   0  0  0  0  0  0  0  0  0  0  0  0
    6.2553   12.7753    1.4576 C   0  0  0  0  0  0  0  0  0  0  0  0
    7.1187   11.5292    1.4904 C   0  0  2  0  0  0  0  0  0  0  0  0
    6.7124   10.6284    0.5192 O   0  0  0  0  0  0  0  0  0  0  0  0
    6.9426   10.9064    2.8785 C   0  0  0  0  0  3  0  0  0  0  0  0
    5.5367   10.4612    3.1044 C   0  0  0  0  0  0  0  0  0  0  0  0
    5.0950   10.6501    4.5612 C   0  0  2  0  0  0  0  0  0  0  0  0
    6.2648   10.1433    5.4108 C   0  0  0  0  0  2  0  0  0  0  0  0
  1  2  1  0
  2  3  1  0
  2  4  1  0
  5  4  1  1
  5  6  1  0
  6  7  1  0
  7  8  1  6
  7  9  1  0
  9 10  1  0
 10 11  1  0
 11 12  1  0
 12 13  1  1
 12 14  1  0
 14 15  1  0
 15 16  1  0
 16 17  1  6
 16 18  1  0
 18 19  1  1
 19 20  1  0
 20 21  1  1
 20 22  1  0
 22 23  1  0
 23 24  1  0
 24 25  1  6
 24 26  1  0
 26 27  1  0
 27 28  1  0
 28 29  1  1
 28  5  1  0
 28 18  1  0
M  RAD  4   9   2  14   2  26   2  29   3
M  END
>  <docking_score>  (2) 
-5.0270000000000001

$$$$

     RDKit          3D

 29 30  0  0  0  0  0  0  0  0999 V2000
    3.0193    5.5454    4.6153 C   0  0  0  0  0  0  0  0  0  0  0  0
    3.4662    6.8449    4.0327 C   0  0  0  0  0  0  0  0  0  0  0  0
    4.1461    6.7142    2.7010 C   0  0  0  0  0  0  0  0  0  0  0  0
    4.3089    7.6543    5.0154 C   0  0  0  0  0  0  0  0  0  0  0  0
    3.8440    9.0570    5.1196 C   0  0  1  0  0  0  0  0  0  0  0  0
    2.8849    9.3605    6.1882 C   0  0  0  0  0  0  0  0  0  0  0  0
    3.0934    8.6776    7.4872 C   0  0  1  0  0  0  0  0  0  0  0  0
    2.6344    7.2635    7.5499 C   0  0  0  0  0  0  0  0  0  0  0  0
    4.4018    8.9441    8.1480 C   0  0  0  0  0  3  0  0  0  0  0  0
    4.1004    9.6608    9.4716 C   0  0  0  0  0  0  0  0  0  0  0  0
    2.8457   10.4974    9.2505 C   0  0  0  0  0  0  0  0  0  0  0  0
    3.2283   11.9703    9.4171 C   0  0  1  0  0  0  0  0  0  0  0  0
    3.5400   12.1818   10.8891 C   0  0  0  0  0  0  0  0  0  0  0  0
    4.4805   12.1806    8.6080 C   0  0  0  0  0  3  0  0  0  0  0  0
    4.1873   12.7541    7.2328 C   0  0  0  0  0  0  0  0  0  0  0  0
    3.6285   11.6927    6.3023 C   0  0  1  0  0  0  0  0  0  0  0  0
    2.2738   12.1810    5.8335 C   0  0  0  0  0  0  0  0  0  0  0  0
    4.4843   11.4659    5.1071 C   0  0  1  0  0  0  0  0  0  0  0  0
    5.6060   12.4373    4.9644 C   0  0  0  0  0  0  0  0  0  0  0  0
    5.2434   13.4712    3.9236 C   0  0  1  0  0  0  0  0  0  0  0  0
    5.2800   14.7679    4.4584 O   0  0  0  0  0  0  0  0  0  0  0  0
    6.1393   13.4229    2.7265 C   0  0  0  0  0  0  0  0  0  0  0  0
    5.6767   12.3396    1.7682 C   0  0  0  0  0  0  0  0  0  0  0  0
    6.7012   11.2217    1.7622 C   0  0  2  0  0  0  0  0  0  0  0  0
    6.3884   10.2785    0.7967 O   0  0  0  0  0  0  0  0  0  0  0  0
    6.6570   10.5747    3.1497 C   0  0  0  0  0  3  0  0  0  0  0  0
    5.3323    9.9424    3.4169 C   0  0  0  0  0  0  0  0  0  0  0  0
    4.9176   10.0634    4.8886 C   0  0  2  0  0  0  0  0  0  0  0  0
    6.1727    9.7160    5.6957 C   0  0  0  0  0  2  0  0  0  0  0  0
  1  2  1  0
  2  3  1  0
  2  4  1  0
  5  4  1  1
  5  6  1  0
  6  7  1  0
  7  8  1  6
  7  9  1  0
  9 10  1  0
 10 11  1  0
 11 12  1  0
 12 13  1  1
 12 14  1  0
 14 15  1  0
 15 16  1  0
 16 17  1  6
 16 18  1  0
 18 19  1  1
 19 20  1  0
 20 21  1  1
 20 22  1  0
 22 23  1  0
 23 24  1  0
 24 25  1  6
 24 26  1  0
 26 27  1  0
 27 28  1  0
 28 29  1  1
 28  5  1  0
 28 18  1  0
M  RAD  4   9   2  14   2  26   2  29   3
M  END
>  <docking_score>  (3) 
-4.9770000000000003

$$$$
