
     RDKit          3D

 25 26  0  0  0  0  0  0  0  0999 V2000
   18.0187   -4.3793   -5.2811 C   0  0  2  0  0  0  0  0  0  0  0  0
   19.1242   -3.6306   -5.0426 O   0  0  0  0  0  0  0  0  0  0  0  0
   20.1344   -3.8229   -5.9924 C   0  0  0  0  0  3  0  0  0  0  0  0
   20.7121   -2.5811   -6.2185 O   0  0  0  0  0  0  0  0  0  0  0  0
   20.2123   -2.0314   -7.3899 C   0  0  2  0  0  0  0  0  0  0  0  0
   20.9868   -0.8131   -7.8171 C   0  0  0  0  0  0  0  0  0  0  0  0
   18.7341   -1.7606   -7.3111 C   0  0  0  0  0  3  0  0  0  0  0  0
   18.0552   -2.5875   -8.3702 C   0  0  0  0  0  3  0  0  0  0  0  0
   16.5977   -2.2392   -8.4528 C   0  0  0  0  0  3  0  0  0  0  0  0
   15.6858   -3.3734   -8.0827 C   0  0  0  0  0  3  0  0  0  0  0  0
   16.3429   -4.3869   -7.1717 C   0  0  1  0  0  0  0  0  0  0  0  0
   16.8683   -3.8051   -5.9257 C   0  0  1  0  0  0  0  0  0  0  0  0
   16.0590   -2.7874   -5.2387 C   0  0  0  0  0  0  0  0  0  0  0  0
   15.2759   -5.4258   -6.8476 C   0  0  0  0  0  0  0  0  0  0  0  0
   15.7769   -6.4440   -6.0376 O   0  0  0  0  0  0  0  0  0  0  0  0
   15.1580   -6.4472   -4.7854 C   0  0  0  0  0  0  0  0  0  0  0  0
   15.7781   -5.5138   -3.9474 O   0  0  0  0  0  0  0  0  0  0  0  0
   17.0464   -5.9806   -3.6164 C   0  0  2  0  0  0  0  0  0  0  0  0
   17.5360   -5.4124   -2.4432 O   0  0  0  0  0  0  0  0  0  0  0  0
   16.6772   -4.4703   -2.0927 O   0  0  0  0  0  0  0  0  0  0  0  0
   17.3669   -3.3702   -1.8382 O   0  0  0  0  0  0  0  0  0  0  0  0
   18.7833   -3.6977   -2.0065 B   0  0  0  0  0  0  0  0  0  0  0  0
   19.6897   -3.4320   -0.8899 O   0  0  0  0  0  0  0  0  0  0  0  0
   20.2653   -2.1751   -1.0560 C   0  0  0  0  0  2  0  0  0  0  0  0
   17.9897   -5.7603   -4.7781 C   0  0  0  0  0  0  0  0  0  0  0  0
  1  2  1  0
  2  3  1  0
  3  4  1  0
  4  5  1  0
  5  6  1  1
  5  7  1  0
  7  8  1  0
  8  9  1  0
  9 10  1  0
 11 10  1  6
 11 12  1  0
 12 13  1  1
 11 14  1  0
 14 15  1  0
 15 16  1  0
 16 17  1  0
 17 18  1  0
 18 19  1  1
 19 20  1  0
 20 21  1  0
 21 22  1  0
 22 23  1  0
 23 24  1  0
 18 25  1  0
 12  1  1  0
  1 25  1  1
M  RAD  6   3   2   7   2   8   2   9   2  10   2  24   3
M  END
>  <docking_score>  (1) 
-4.5899999999999999

$$$$

     RDKit          3D

 25 26  0  0  0  0  0  0  0  0999 V2000
   16.2790   -4.0802   -5.0146 C   0  0  2  0  0  0  0  0  0  0  0  0
   16.6577   -5.2087   -4.3647 O   0  0  0  0  0  0  0  0  0  0  0  0
   15.8366   -6.3073   -4.6454 C   0  0  0  0  0  3  0  0  0  0  0  0
   16.6670   -7.4168   -4.7258 O   0  0  0  0  0  0  0  0  0  0  0  0
   16.9211   -7.7241   -6.0544 C   0  0  2  0  0  0  0  0  0  0  0  0
   17.5984   -9.0602   -6.2052 C   0  0  0  0  0  0  0  0  0  0  0  0
   17.6713   -6.6287   -6.7630 C   0  0  0  0  0  3  0  0  0  0  0  0
   16.8070   -6.1307   -7.8905 C   0  0  0  0  0  3  0  0  0  0  0  0
   17.5644   -5.1503   -8.7377 C   0  0  0  0  0  3  0  0  0  0  0  0
   16.9871   -3.7642   -8.7162 C   0  0  0  0  0  3  0  0  0  0  0  0
   16.1843   -3.4777   -7.4663 C   0  0  1  0  0  0  0  0  0  0  0  0
   16.9456   -3.6689   -6.2209 C   0  0  1  0  0  0  0  0  0  0  0  0
   18.3406   -3.2054   -6.1810 C   0  0  0  0  0  0  0  0  0  0  0  0
   15.7265   -2.0281   -7.5750 C   0  0  0  0  0  0  0  0  0  0  0  0
   14.9367   -1.6540   -6.4886 O   0  0  0  0  0  0  0  0  0  0  0  0
   15.5589   -0.6625   -5.7265 C   0  0  0  0  0  0  0  0  0  0  0  0
   16.4618   -1.2483   -4.8323 O   0  0  0  0  0  0  0  0  0  0  0  0
   15.7456   -1.9259   -3.8504 C   0  0  2  0  0  0  0  0  0  0  0  0
   16.4820   -2.1111   -2.6832 O   0  0  0  0  0  0  0  0  0  0  0  0
   17.7157   -1.7167   -2.9484 O   0  0  0  0  0  0  0  0  0  0  0  0
   18.3253   -1.4958   -1.7950 O   0  0  0  0  0  0  0  0  0  0  0  0
   19.2898   -2.5791   -1.5999 B   0  0  0  0  0  0  0  0  0  0  0  0
   19.0099   -3.8720   -2.2236 O   0  0  0  0  0  0  0  0  0  0  0  0
   20.1972   -4.4126   -2.7102 C   0  0  0  0  0  2  0  0  0  0  0  0
   15.2392   -3.2392   -4.4040 C   0  0  0  0  0  0  0  0  0  0  0  0
  1  2  1  0
  2  3  1  0
  3  4  1  0
  4  5  1  0
  5  6  1  1
  5  7  1  0
  7  8  1  0
  8  9  1  0
  9 10  1  0
 11 10  1  6
 11 12  1  0
 12 13  1  1
 11 14  1  0
 14 15  1  0
 15 16  1  0
 16 17  1  0
 17 18  1  0
 18 19  1  1
 19 20  1  0
 20 21  1  0
 21 22  1  0
 22 23  1  0
 23 24  1  0
 18 25  1  0
 12  1  1  0
  1 25  1  1
M  RAD  6   3   2   7   2   8   2   9   2  10   2  24   3
M  END
>  <docking_score>  (2) 
-4.4530000000000003

$$$$

     RDKit          3D

 25 26  0  0  0  0  0  0  0  0999 V2000
   16.8971   -4.3819   -4.9159 C   0  0  2  0  0  0  0  0  0  0  0  0
   15.6538   -3.8711   -5.0969 O   0  0  0  0  0  0  0  0  0  0  0  0
   15.3266   -2.8769   -4.1673 C   0  0  0  0  0  3  0  0  0  0  0  0
   14.6061   -1.9092   -4.8538 O   0  0  0  0  0  0  0  0  0  0  0  0
   15.4300   -0.8385   -5.1688 C   0  0  2  0  0  0  0  0  0  0  0  0
   14.6495    0.3427   -5.6807 C   0  0  0  0  0  0  0  0  0  0  0  0
   16.5427   -1.2272   -6.1045 C   0  0  0  0  0  3  0  0  0  0  0  0
   17.8489   -0.9739   -5.4002 C   0  0  0  0  0  3  0  0  0  0  0  0
   19.0003   -1.1866   -6.3391 C   0  0  0  0  0  3  0  0  0  0  0  0
   19.8986   -2.3227   -5.9424 C   0  0  0  0  0  3  0  0  0  0  0  0
   19.2002   -3.3578   -5.0883 C   0  0  1  0  0  0  0  0  0  0  0  0
   18.0005   -3.9306   -5.7205 C   0  0  1  0  0  0  0  0  0  0  0  0
   18.0548   -4.2461   -7.1558 C   0  0  0  0  0  0  0  0  0  0  0  0
   20.2225   -4.4578   -4.8279 C   0  0  0  0  0  0  0  0  0  0  0  0
   19.7036   -5.4609   -4.0104 O   0  0  0  0  0  0  0  0  0  0  0  0
   19.6156   -6.6766   -4.6926 C   0  0  0  0  0  0  0  0  0  0  0  0
   18.4345   -6.7155   -5.4420 O   0  0  0  0  0  0  0  0  0  0  0  0
   17.3539   -6.8219   -4.5718 C   0  0  2  0  0  0  0  0  0  0  0  0
   16.2228   -7.3527   -5.1863 O   0  0  0  0  0  0  0  0  0  0  0  0
   15.2057   -7.1141   -4.3761 O   0  0  0  0  0  0  0  0  0  0  0  0
   14.1641   -6.7843   -5.1225 O   0  0  0  0  0  0  0  0  0  0  0  0
   14.6847   -6.2433   -6.3787 B   0  0  0  0  0  0  0  0  0  0  0  0
   13.7396   -5.6228   -7.3064 O   0  0  0  0  0  0  0  0  0  0  0  0
   14.4411   -5.0749   -8.3770 C   0  0  0  0  0  2  0  0  0  0  0  0
   17.0681   -5.4744   -3.9472 C   0  0  0  0  0  0  0  0  0  0  0  0
  1  2  1  0
  2  3  1  0
  3  4  1  0
  4  5  1  0
  5  6  1  6
  5  7  1  0
  7  8  1  0
  8  9  1  0
  9 10  1  0
 11 10  1  6
 11 12  1  0
 12 13  1  1
 11 14  1  0
 14 15  1  0
 15 16  1  0
 16 17  1  0
 17 18  1  0
 18 19  1  6
 19 20  1  0
 20 21  1  0
 21 22  1  0
 22 23  1  0
 23 24  1  0
 18 25  1  0
 12  1  1  0
  1 25  1  6
M  RAD  6   3   2   7   2   8   2   9   2  10   2  24   3
M  END
>  <docking_score>  (3) 
-4.3239999999999998

$$$$
