
     RDKit          3D

 17 17  0  0  0  0  0  0  0  0999 V2000
   21.1926   -0.1926   -1.2353 C   0  0  0  0  0  0  0  0  0  0  0  0
   21.0445   -0.1640   -2.6209 O   0  0  0  0  0  0  0  0  0  0  0  0
   19.9648   -0.8286   -3.2307 C   0  0  0  0  0  0  0  0  0  0  0  0
   19.8218   -1.1691   -4.4881 C   0  0  0  0  0  0  0  0  0  0  0  0
   18.5561   -1.8432   -4.7140 C   0  0  0  0  0  0  0  0  0  0  0  0
   17.9313   -1.9030   -3.5541 C   0  0  0  0  0  0  0  0  0  0  0  0
   16.6001   -2.5007   -3.2728 C   0  0  1  0  0  0  0  0  0  0  0  0
   16.5884   -3.2663   -1.9652 C   0  0  0  0  0  0  0  0  0  0  0  0
   17.5432   -4.4501   -2.1567 C   0  0  0  0  0  0  0  0  0  0  0  0
   16.8130   -5.4073   -3.0614 C   0  0  0  0  0  0  0  0  0  0  0  0
   17.5561   -6.0261   -3.9883 C   0  0  0  0  0  0  0  0  0  0  0  0
   15.5267   -1.5079   -3.3482 C   0  0  0  0  0  0  0  0  0  0  0  0
   14.6340   -1.4281   -4.3217 C   0  0  0  0  0  0  0  0  0  0  0  0
   13.6144   -0.3518   -4.2306 C   0  0  0  0  0  0  0  0  0  0  0  0
   14.6846   -2.3799   -5.4236 C   0  0  0  0  0  0  0  0  0  0  0  0
   14.1072   -3.4743   -5.4265 O   0  0  0  0  0  0  0  0  0  0  0  0
   18.7599   -1.2702   -2.5130 C   0  0  0  0  0  0  0  0  0  0  0  0
  1  2  1  0
  2  3  1  0
  3  4  2  0
  4  5  1  0
  5  6  2  0
  6  7  1  0
  7  8  1  1
  8  9  1  0
  9 10  1  0
 10 11  2  0
  7 12  1  0
 12 13  2  3
 13 14  1  0
 13 15  1  0
 15 16  2  0
  6 17  1  0
 17  3  1  0
M  END
>  <docking_score>  (1) 
-4.2009999999999996

$$$$

     RDKit          3D

 17 17  0  0  0  0  0  0  0  0999 V2000
   14.1772    0.2037   -5.4327 C   0  0  0  0  0  0  0  0  0  0  0  0
   13.7079   -1.0048   -4.9209 O   0  0  0  0  0  0  0  0  0  0  0  0
   14.6097   -2.0386   -4.6088 C   0  0  0  0  0  0  0  0  0  0  0  0
   14.6359   -3.2649   -5.0702 C   0  0  0  0  0  0  0  0  0  0  0  0
   15.7317   -4.0240   -4.4953 C   0  0  0  0  0  0  0  0  0  0  0  0
   16.3732   -3.2216   -3.6683 C   0  0  0  0  0  0  0  0  0  0  0  0
   17.5668   -3.5396   -2.8421 C   0  0  1  0  0  0  0  0  0  0  0  0
   17.5981   -4.9976   -2.4306 C   0  0  0  0  0  0  0  0  0  0  0  0
   18.8257   -5.6070   -3.1170 C   0  0  0  0  0  0  0  0  0  0  0  0
   18.2826   -6.6803   -4.0230 C   0  0  0  0  0  0  0  0  0  0  0  0
   18.4803   -6.5003   -5.3354 C   0  0  0  0  0  0  0  0  0  0  0  0
   18.8099   -3.1152   -3.4891 C   0  0  0  0  0  0  0  0  0  0  0  0
   19.6963   -2.2875   -2.9600 C   0  0  0  0  0  0  0  0  0  0  0  0
   20.9033   -1.9692   -3.7651 C   0  0  0  0  0  0  0  0  0  0  0  0
   19.4591   -1.7310   -1.6345 C   0  0  0  0  0  0  0  0  0  0  0  0
   19.8562   -0.6192   -1.2641 O   0  0  0  0  0  0  0  0  0  0  0  0
   15.7266   -1.8977   -3.6631 C   0  0  0  0  0  0  0  0  0  0  0  0
  1  2  1  0
  2  3  1  0
  3  4  2  0
  4  5  1  0
  5  6  2  0
  6  7  1  0
  7  8  1  6
  8  9  1  0
  9 10  1  0
 10 11  2  0
  7 12  1  0
 12 13  2  3
 13 14  1  0
 13 15  1  0
 15 16  2  0
  6 17  1  0
 17  3  1  0
M  END
>  <docking_score>  (2) 
-4.0199999999999996

$$$$

     RDKit          3D

 17 17  0  0  0  0  0  0  0  0999 V2000
   20.6717   -2.7611   -1.3307 C   0  0  0  0  0  0  0  0  0  0  0  0
   19.3266   -2.4241   -1.4719 O   0  0  0  0  0  0  0  0  0  0  0  0
   18.6174   -2.8117   -2.6234 C   0  0  0  0  0  0  0  0  0  0  0  0
   19.0921   -3.2129   -3.7771 C   0  0  0  0  0  0  0  0  0  0  0  0
   18.0244   -3.5218   -4.7110 C   0  0  0  0  0  0  0  0  0  0  0  0
   16.8829   -3.2962   -4.0900 C   0  0  0  0  0  0  0  0  0  0  0  0
   15.5093   -3.4669   -4.6307 C   0  0  1  0  0  0  0  0  0  0  0  0
   14.6935   -2.1952   -4.5151 C   0  0  0  0  0  0  0  0  0  0  0  0
   15.2669   -1.2260   -5.5550 C   0  0  0  0  0  0  0  0  0  0  0  0
   14.2643   -0.1065   -5.6504 C   0  0  0  0  0  0  0  0  0  0  0  0
   13.7390    0.3153   -4.4927 C   0  0  0  0  0  0  0  0  0  0  0  0
   15.5194   -4.0019   -5.9936 C   0  0  0  0  0  0  0  0  0  0  0  0
   15.0227   -5.1748   -6.3519 C   0  0  0  0  0  0  0  0  0  0  0  0
   15.1225   -5.5529   -7.7849 C   0  0  0  0  0  0  0  0  0  0  0  0
   14.4095   -6.0334   -5.3472 C   0  0  0  0  0  0  0  0  0  0  0  0
   14.8675   -7.1263   -4.9908 O   0  0  0  0  0  0  0  0  0  0  0  0
   17.1502   -2.8285   -2.7187 C   0  0  0  0  0  0  0  0  0  0  0  0
  1  2  1  0
  2  3  1  0
  3  4  2  0
  4  5  1  0
  5  6  2  0
  6  7  1  0
  7  8  1  6
  8  9  1  0
  9 10  1  0
 10 11  2  0
  7 12  1  0
 12 13  2  3
 13 14  1  0
 13 15  1  0
 15 16  2  0
  6 17  1  0
 17  3  1  0
M  END
>  <docking_score>  (3) 
-3.931

$$$$
