
     RDKit          3D

 23 24  0  0  0  0  0  0  0  0999 V2000
   17.0508   -3.1473   -2.5021 C   0  0  0  0  0  0  0  0  0  0  0  0
   15.9181   -2.9291   -3.4872 C   0  0  1  0  0  0  0  0  0  0  0  0
   15.3659   -1.5649   -3.2405 C   0  0  0  0  0  0  0  0  0  0  0  0
   14.7397   -0.8754   -4.3891 C   0  0  2  0  0  0  0  0  0  0  0  0
   13.5856   -0.1781   -4.1282 O   0  0  0  0  0  0  0  0  0  0  0  0
   14.5835   -1.8061   -5.5967 C   0  0  2  0  0  0  0  0  0  0  0  0
   13.8540   -2.9214   -5.2039 O   0  0  0  0  0  0  0  0  0  0  0  0
   15.9885   -2.2566   -5.9098 C   0  0  1  0  0  0  0  0  0  0  0  0
   16.8381   -1.1447   -5.7899 O   0  0  0  0  0  0  0  0  0  0  0  0
   16.4110   -3.2440   -4.8362 C   0  0  1  0  0  0  0  0  0  0  0  0
   17.8605   -3.3423   -4.9689 N   0  0  0  0  0  0  0  0  0  0  0  0
   18.3019   -4.6684   -5.3572 C   0  0  1  0  0  0  0  0  0  0  0  0
   17.0985   -5.4800   -5.8261 C   0  0  0  0  0  0  0  0  0  0  0  0
   17.3990   -6.9305   -5.4265 C   0  0  0  0  0  3  0  0  0  0  0  0
   16.2286   -7.6216   -5.1833 O   0  0  0  0  0  0  0  0  0  0  0  0
   18.2233   -7.5670   -6.5217 C   0  0  1  0  0  0  0  0  0  0  0  0
   17.8174   -7.0792   -7.7646 O   0  0  0  0  0  0  0  0  0  0  0  0
   19.6749   -7.2731   -6.2303 C   0  0  1  0  0  0  0  0  0  0  0  0
   20.4742   -8.3307   -6.6682 O   0  0  0  0  0  0  0  0  0  0  0  0
   20.2363   -5.8161   -6.7434 S   0  0  1  0  0  0  0  0  0  0  0  0
   21.1106   -5.8449   -8.3337 O   0  0  0  0  0  0  0  0  0  0  0  0
   19.2747   -4.5035   -6.5359 C   0  0  1  0  0  0  0  0  0  0  0  0
   18.4777   -4.2488   -7.6771 O   0  0  0  0  0  0  0  0  0  0  0  0
  2  1  1  1
  2  3  1  0
  3  4  1  0
  4  5  1  1
  4  6  1  0
  6  7  1  1
  6  8  1  0
  8  9  1  1
  8 10  1  0
 10 11  1  1
 12 11  1  6
 12 13  1  0
 13 14  1  0
 14 15  1  0
 14 16  1  0
 16 17  1  6
 16 18  1  0
 18 19  1  6
 18 20  1  0
 20 21  1  6
 20 22  1  0
 22 23  1  6
 10  2  1  0
 22 12  1  0
M  RAD  1  14   2
M  END
>  <docking_score>  (1) 
-4.5490000000000004

$$$$

     RDKit          3D

 23 24  0  0  0  0  0  0  0  0999 V2000
   16.6403   -2.4537   -1.9988 C   0  0  0  0  0  0  0  0  0  0  0  0
   17.7613   -1.8731   -2.8396 C   0  0  1  0  0  0  0  0  0  0  0  0
   18.7049   -1.1816   -1.9131 C   0  0  0  0  0  0  0  0  0  0  0  0
   20.1193   -1.0951   -2.3356 C   0  0  2  0  0  0  0  0  0  0  0  0
   20.7584    0.0958   -2.0912 O   0  0  0  0  0  0  0  0  0  0  0  0
   20.3113   -1.5589   -3.7837 C   0  0  2  0  0  0  0  0  0  0  0  0
   19.4807   -0.8049   -4.6033 O   0  0  0  0  0  0  0  0  0  0  0  0
   19.8079   -2.9808   -3.7940 C   0  0  1  0  0  0  0  0  0  0  0  0
   20.2641   -3.6117   -2.6251 O   0  0  0  0  0  0  0  0  0  0  0  0
   18.2927   -2.9389   -3.7020 C   0  0  1  0  0  0  0  0  0  0  0  0
   17.9031   -4.2964   -3.3362 N   0  0  0  0  0  0  0  0  0  0  0  0
   18.3214   -5.2846   -4.3122 C   0  0  1  0  0  0  0  0  0  0  0  0
   18.3870   -6.6537   -3.6429 C   0  0  0  0  0  0  0  0  0  0  0  0
   19.5284   -7.4010   -4.3450 C   0  0  0  0  0  3  0  0  0  0  0  0
   20.1174   -8.3083   -3.4868 O   0  0  0  0  0  0  0  0  0  0  0  0
   18.9746   -8.0622   -5.5860 C   0  0  1  0  0  0  0  0  0  0  0  0
   17.6716   -8.5015   -5.3476 O   0  0  0  0  0  0  0  0  0  0  0  0
   19.0506   -7.0585   -6.7109 C   0  0  1  0  0  0  0  0  0  0  0  0
   19.2773   -7.7143   -7.9224 O   0  0  0  0  0  0  0  0  0  0  0  0
   17.8106   -5.9842   -6.8083 S   0  0  1  0  0  0  0  0  0  0  0  0
   16.5066   -6.4195   -7.9934 O   0  0  0  0  0  0  0  0  0  0  0  0
   17.2505   -5.3257   -5.4143 C   0  0  1  0  0  0  0  0  0  0  0  0
   16.1625   -6.0596   -4.8849 O   0  0  0  0  0  0  0  0  0  0  0  0
  2  1  1  1
  2  3  1  0
  3  4  1  0
  4  5  1  6
  4  6  1  0
  6  7  1  6
  6  8  1  0
  8  9  1  1
  8 10  1  0
 10 11  1  1
 12 11  1  1
 12 13  1  0
 13 14  1  0
 14 15  1  0
 14 16  1  0
 16 17  1  1
 16 18  1  0
 18 19  1  6
 18 20  1  0
 20 21  1  1
 20 22  1  0
 22 23  1  1
 10  2  1  0
 22 12  1  0
M  RAD  1  14   2
M  END
>  <docking_score>  (2) 
-4.2830000000000004

$$$$

     RDKit          3D

 23 24  0  0  0  0  0  0  0  0999 V2000
    6.2415   13.0210    1.0850 C   0  0  0  0  0  0  0  0  0  0  0  0
    7.3577   13.1901    2.0981 C   0  0  1  0  0  0  0  0  0  0  0  0
    8.0234   14.4960    1.8181 C   0  0  0  0  0  0  0  0  0  0  0  0
    8.6673   15.1805    2.9597 C   0  0  2  0  0  0  0  0  0  0  0  0
    9.8803   15.7746    2.7109 O   0  0  0  0  0  0  0  0  0  0  0  0
    8.7130   14.2902    4.2064 C   0  0  2  0  0  0  0  0  0  0  0  0
    9.3635   13.1065    3.8808 O   0  0  0  0  0  0  0  0  0  0  0  0
    7.2680   13.9637    4.4897 C   0  0  1  0  0  0  0  0  0  0  0  0
    6.5130   15.1326    4.2994 O   0  0  0  0  0  0  0  0  0  0  0  0
    6.8011   12.9695    3.4410 C   0  0  1  0  0  0  0  0  0  0  0  0
    5.3450   12.9898    3.5293 N   0  0  0  0  0  0  0  0  0  0  0  0
    4.7847   11.7020    3.8918 C   0  0  1  0  0  0  0  0  0  0  0  0
    5.7408   10.5976    3.4524 C   0  0  0  0  0  0  0  0  0  0  0  0
    4.8498    9.4048    3.0817 C   0  0  0  0  0  3  0  0  0  0  0  0
    5.4500    8.6323    2.1073 O   0  0  0  0  0  0  0  0  0  0  0  0
    4.5579    8.6176    4.3383 C   0  0  1  0  0  0  0  0  0  0  0  0
    5.6720    8.6361    5.1786 O   0  0  0  0  0  0  0  0  0  0  0  0
    3.3356    9.2241    4.9838 C   0  0  1  0  0  0  0  0  0  0  0  0
    2.5965    8.2335    5.6332 O   0  0  0  0  0  0  0  0  0  0  0  0
    3.5968   10.5334    5.9422 S   0  0  1  0  0  0  0  0  0  0  0  0
    3.7060   10.1773    7.7187 O   0  0  0  0  0  0  0  0  0  0  0  0
    4.6626   11.6674    5.4238 C   0  0  1  0  0  0  0  0  0  0  0  0
    5.9661   11.4318    5.9217 O   0  0  0  0  0  0  0  0  0  0  0  0
  2  1  1  6
  2  3  1  0
  3  4  1  0
  4  5  1  6
  4  6  1  0
  6  7  1  6
  6  8  1  0
  8  9  1  6
  8 10  1  0
 10 11  1  6
 12 11  1  1
 12 13  1  0
 13 14  1  0
 14 15  1  0
 14 16  1  0
 16 17  1  1
 16 18  1  0
 18 19  1  1
 18 20  1  0
 20 21  1  1
 20 22  1  0
 22 23  1  1
 10  2  1  0
 22 12  1  0
M  RAD  1  14   2
M  END
>  <docking_score>  (3) 
-3.96

$$$$
