
     RDKit          3D

 26 28  0  0  0  0  0  0  0  0999 V2000
    3.1189   11.1777    4.3164 O   0  0  0  0  0  0  0  0  0  0  0  0
    4.2777   11.3538    4.7623 C   0  0  0  0  0  0  0  0  0  0  0  0
    5.0048   10.2347    5.2547 N   0  0  0  0  0  0  0  0  0  0  0  0
    4.4395    8.9140    5.2506 C   0  0  0  0  0  0  0  0  0  0  0  0
    4.3394    8.2292    4.0539 C   0  0  0  0  0  0  0  0  0  0  0  0
    3.8045    6.9561    3.9871 C   0  0  0  0  0  0  0  0  0  0  0  0
    3.7095    6.1474    2.4302 Cl  0  0  0  0  0  0  0  0  0  0  0  0
    3.3545    6.3435    5.1478 C   0  0  0  0  0  0  0  0  0  0  0  0
    3.4605    7.0410    6.3420 C   0  0  0  0  0  0  0  0  0  0  0  0
    2.8975    6.2831    7.8153 Cl  0  0  0  0  0  0  0  0  0  0  0  0
    3.9952    8.3072    6.3912 C   0  0  0  0  0  0  0  0  0  0  0  0
    4.8129   12.6657    4.7556 N   0  0  0  0  0  0  0  0  0  0  0  0
    5.8976   13.0544    3.8540 C   0  0  2  0  0  0  0  0  0  0  0  0
    6.4917   11.7956    3.2793 C   0  0  0  0  0  0  0  0  0  0  0  0
    6.2547   11.6508    1.8003 C   0  0  0  0  0  0  0  0  0  0  0  0
    6.7115   13.1452    0.9215 S   0  0  0  0  0  0  0  0  0  0  0  0
    8.0988   13.9880    1.6303 C   0  0  0  0  0  0  0  0  0  0  0  0
    8.6011   14.0783    2.8597 C   0  0  0  0  0  0  0  0  0  0  0  0
    8.3271   13.5799    4.2230 C   0  0  0  0  0  0  0  0  0  0  0  0
    6.9265   13.7583    4.6775 C   0  0  1  0  0  0  0  0  0  0  0  0
    6.5647   15.1213    5.0761 C   0  0  0  0  0  0  0  0  0  0  0  0
    6.2603   15.3349    6.3585 C   0  0  0  0  0  0  0  0  0  0  0  0
    6.2757   14.2594    7.3750 C   0  0  0  0  0  0  0  0  0  0  0  0
    4.9683   13.9839    7.9282 N   0  0  0  0  0  0  0  0  0  0  0  0
    4.1909   13.1125    7.0799 C   0  0  0  0  0  0  0  0  0  0  0  0
    4.2850   13.6574    5.6563 C   0  0  0  0  0  0  0  0  0  0  0  0
  1  2  2  0
  2  3  1  0
  3  4  1  0
  4  5  2  0
  5  6  1  0
  6  7  1  0
  6  8  2  0
  8  9  1  0
  9 10  1  0
  9 11  2  0
  2 12  1  0
 12 13  1  0
 13 14  1  1
 14 15  1  0
 15 16  1  0
 16 17  1  0
 17 18  2  3
 18 19  1  0
 20 19  1  6
 20 21  1  0
 21 22  2  3
 22 23  1  0
 23 24  1  0
 24 25  1  0
 25 26  1  0
 11  4  1  0
 26 12  1  0
 20 13  1  0
M  END
>  <docking_score>  (1) 
-4.4400000000000004

$$$$

     RDKit          3D

 26 28  0  0  0  0  0  0  0  0999 V2000
    4.4273   12.4928    4.6016 O   0  0  0  0  0  0  0  0  0  0  0  0
    5.4966   12.5367    5.2553 C   0  0  0  0  0  0  0  0  0  0  0  0
    5.9982   11.3403    5.8387 N   0  0  0  0  0  0  0  0  0  0  0  0
    5.3065   10.0895    5.6937 C   0  0  0  0  0  0  0  0  0  0  0  0
    4.7291    9.5076    6.8069 C   0  0  0  0  0  0  0  0  0  0  0  0
    4.0509    8.3054    6.7297 C   0  0  0  0  0  0  0  0  0  0  0  0
    3.3427    7.6263    8.1873 Cl  0  0  0  0  0  0  0  0  0  0  0  0
    3.9429    7.6604    5.5061 C   0  0  0  0  0  0  0  0  0  0  0  0
    4.5264    8.2545    4.3969 C   0  0  0  0  0  0  0  0  0  0  0  0
    4.3997    7.4543    2.8458 Cl  0  0  0  0  0  0  0  0  0  0  0  0
    5.1979    9.4511    4.4907 C   0  0  0  0  0  0  0  0  0  0  0  0
    6.1600   13.7821    5.3839 N   0  0  0  0  0  0  0  0  0  0  0  0
    7.2378   14.1819    4.4789 C   0  0  2  0  0  0  0  0  0  0  0  0
    7.6769   12.9591    3.7176 C   0  0  0  0  0  0  0  0  0  0  0  0
    7.3622   13.0321    2.2479 C   0  0  0  0  0  0  0  0  0  0  0  0
    7.9278   14.5792    1.5402 S   0  0  0  0  0  0  0  0  0  0  0  0
    9.4223   15.1879    2.2704 C   0  0  0  0  0  0  0  0  0  0  0  0
    9.9844   15.0689    3.4711 C   0  0  0  0  0  0  0  0  0  0  0  0
    9.7216   14.4242    4.7740 C   0  0  0  0  0  0  0  0  0  0  0  0
    8.3672   14.6721    5.3254 C   0  0  1  0  0  0  0  0  0  0  0  0
    8.1617   15.9992    5.9125 C   0  0  0  0  0  0  0  0  0  0  0  0
    7.9367   16.0706    7.2266 C   0  0  0  0  0  0  0  0  0  0  0  0
    7.8884   14.8745    8.0969 C   0  0  0  0  0  0  0  0  0  0  0  0
    6.5854   14.6529    8.6837 N   0  0  0  0  0  0  0  0  0  0  0  0
    5.6881   13.9771    7.7773 C   0  0  0  0  0  0  0  0  0  0  0  0
    5.7742   14.6925    6.4307 C   0  0  0  0  0  0  0  0  0  0  0  0
  1  2  2  0
  2  3  1  0
  3  4  1  0
  4  5  2  0
  5  6  1  0
  6  7  1  0
  6  8  2  0
  8  9  1  0
  9 10  1  0
  9 11  2  0
  2 12  1  0
 12 13  1  0
 13 14  1  1
 14 15  1  0
 15 16  1  0
 16 17  1  0
 17 18  2  3
 18 19  1  0
 20 19  1  6
 20 21  1  0
 21 22  2  3
 22 23  1  0
 23 24  1  0
 24 25  1  0
 25 26  1  0
 11  4  1  0
 26 12  1  0
 20 13  1  0
M  END
>  <docking_score>  (2) 
-4.3970000000000002

$$$$

     RDKit          3D

 26 28  0  0  0  0  0  0  0  0999 V2000
    3.5709   12.6724    4.4202 O   0  0  0  0  0  0  0  0  0  0  0  0
    4.1711   11.5866    4.6026 C   0  0  0  0  0  0  0  0  0  0  0  0
    5.5913   11.5621    4.5268 N   0  0  0  0  0  0  0  0  0  0  0  0
    6.3466   12.7515    4.2465 C   0  0  0  0  0  0  0  0  0  0  0  0
    6.8672   12.9344    2.9790 C   0  0  0  0  0  0  0  0  0  0  0  0
    7.6022   14.0581    2.6498 C   0  0  0  0  0  0  0  0  0  0  0  0
    8.2324   14.2218    1.0179 Cl  0  0  0  0  0  0  0  0  0  0  0  0
    7.8271   15.0321    3.6120 C   0  0  0  0  0  0  0  0  0  0  0  0
    7.2995   14.8369    4.8798 C   0  0  0  0  0  0  0  0  0  0  0  0
    7.5739   16.0555    6.1053 Cl  0  0  0  0  0  0  0  0  0  0  0  0
    6.5705   13.7130    5.1910 C   0  0  0  0  0  0  0  0  0  0  0  0
    3.4038   10.4276    4.8775 N   0  0  0  0  0  0  0  0  0  0  0  0
    3.2179    9.9275    6.2398 C   0  0  2  0  0  0  0  0  0  0  0  0
    4.2178   10.6227    7.1256 C   0  0  0  0  0  0  0  0  0  0  0  0
    3.5796   11.5473    8.1267 C   0  0  0  0  0  0  0  0  0  0  0  0
    2.2575   10.7260    9.0165 S   0  0  0  0  0  0  0  0  0  0  0  0
    2.5584    9.0039    9.3014 C   0  0  0  0  0  0  0  0  0  0  0  0
    3.2541    8.0651    8.6638 C   0  0  0  0  0  0  0  0  0  0  0  0
    4.1014    7.9179    7.4628 C   0  0  0  0  0  0  0  0  0  0  0  0
    3.5091    8.4622    6.2167 C   0  0  1  0  0  0  0  0  0  0  0  0
    2.4604    7.6387    5.6083 C   0  0  0  0  0  0  0  0  0  0  0  0
    2.7088    7.0972    4.4134 C   0  0  0  0  0  0  0  0  0  0  0  0
    3.9864    7.2970    3.6937 C   0  0  0  0  0  0  0  0  0  0  0  0
    3.8306    8.0250    2.4540 N   0  0  0  0  0  0  0  0  0  0  0  0
    3.7750    9.4520    2.6640 C   0  0  0  0  0  0  0  0  0  0  0  0
    2.7820    9.7091    3.7954 C   0  0  0  0  0  0  0  0  0  0  0  0
  1  2  2  0
  2  3  1  0
  3  4  1  0
  4  5  2  0
  5  6  1  0
  6  7  1  0
  6  8  2  0
  8  9  1  0
  9 10  1  0
  9 11  2  0
  2 12  1  0
 12 13  1  0
 13 14  1  1
 14 15  1  0
 15 16  1  0
 16 17  1  0
 17 18  2  3
 18 19  1  0
 20 19  1  1
 20 21  1  0
 21 22  2  3
 22 23  1  0
 23 24  1  0
 24 25  1  0
 25 26  1  0
 11  4  1  0
 26 12  1  0
 20 13  1  0
M  END
>  <docking_score>  (3) 
-3.9780000000000002

$$$$
