
     RDKit          3D

 22 22  0  0  0  0  0  0  0  0999 V2000
    7.4594   11.3441    4.7453 C   0  0  0  0  0  0  0  0  0  0  0  0
    6.3175   11.2051    3.8343 C   0  0  0  0  0  0  0  0  0  0  0  0
    5.0412   11.2603    4.2475 C   0  0  0  0  0  0  0  0  0  0  0  0
    4.8058   11.4666    5.6634 C   0  0  0  0  0  0  0  0  0  0  0  0
    4.6578   10.5059    6.5332 C   0  0  0  0  0  0  0  0  0  0  0  0
    4.4207   10.7389    7.9603 C   0  0  0  0  0  0  0  0  0  0  0  0
    4.5268   12.0947    8.5684 C   0  0  0  0  0  0  0  0  0  0  0  0
    4.0992    9.7603    8.7891 C   0  0  0  0  0  0  0  0  0  0  0  0
    3.8620    9.9849   10.2098 C   0  0  0  0  0  0  0  0  0  0  0  0
    3.5987    9.0521   11.0730 C   0  0  0  0  0  0  0  0  0  0  0  0
    3.3651    9.3315   12.5064 C   0  0  0  0  0  0  0  0  0  0  0  0
    3.5459    8.3191   13.5560 C   0  0  0  0  0  0  0  0  0  0  0  0
    2.9761   10.5420   12.8693 C   0  0  0  0  0  0  0  0  0  0  0  0
    2.7207   10.9166   14.2477 C   0  0  0  0  0  0  0  0  0  0  0  0
    2.9300   12.1012   14.5914 O   0  0  0  0  0  0  0  0  0  0  0  0
    2.2636   10.0089   15.1558 O   0  0  0  0  0  0  0  0  0  0  0  0
    3.9548   11.1172    3.2550 C   0  0  0  0  0  0  0  0  0  0  0  0
    3.6682   12.4517    2.5874 C   0  0  0  0  0  0  0  0  0  0  0  0
    2.6773   10.7250    3.9821 C   0  0  0  0  0  0  0  0  0  0  0  0
    4.2830   10.0944    2.2235 C   0  0  0  0  0  0  0  0  0  0  0  0
    5.7119    9.8543    1.9536 C   0  0  0  0  0  0  0  0  0  0  0  0
    6.5860   10.9845    2.3769 C   0  0  0  0  0  0  0  0  0  0  0  0
  1  2  1  0
  2  3  2  0
  3  4  1  0
  4  5  2  0
  5  6  1  0
  6  7  1  0
  6  8  2  0
  8  9  1  0
  9 10  2  0
 10 11  1  0
 11 12  1  0
 11 13  2  0
 13 14  1  0
 14 15  2  0
 14 16  1  0
  3 17  1  0
 17 18  1  0
 17 19  1  0
 17 20  1  0
 20 21  1  0
 21 22  1  0
 22  2  1  0
M  END
>  <docking_score>  (1) 
-3.411

$$$$

     RDKit          3D

 22 22  0  0  0  0  0  0  0  0999 V2000
    7.6960   13.2185    3.7246 C   0  0  0  0  0  0  0  0  0  0  0  0
    6.7376   12.3172    3.0750 C   0  0  0  0  0  0  0  0  0  0  0  0
    5.8874   11.5362    3.7606 C   0  0  0  0  0  0  0  0  0  0  0  0
    5.9382   11.6035    5.2082 C   0  0  0  0  0  0  0  0  0  0  0  0
    5.1497   12.3418    5.9395 C   0  0  0  0  0  0  0  0  0  0  0  0
    5.2198   12.3936    7.4021 C   0  0  0  0  0  0  0  0  0  0  0  0
    4.6571   11.3130    8.2594 C   0  0  0  0  0  0  0  0  0  0  0  0
    5.7858   13.4012    8.0443 C   0  0  0  0  0  0  0  0  0  0  0  0
    5.8590   13.4592    9.4991 C   0  0  0  0  0  0  0  0  0  0  0  0
    5.0188   12.8868   10.3060 C   0  0  0  0  0  0  0  0  0  0  0  0
    5.1362   12.9754   11.7776 C   0  0  0  0  0  0  0  0  0  0  0  0
    5.8893   14.0400   12.4550 C   0  0  0  0  0  0  0  0  0  0  0  0
    4.5411   12.0613   12.5251 C   0  0  0  0  0  0  0  0  0  0  0  0
    4.5959   12.0594   13.9752 C   0  0  0  0  0  0  0  0  0  0  0  0
    5.2949   11.1913   14.5435 O   0  0  0  0  0  0  0  0  0  0  0  0
    3.9071   12.9763   14.7117 O   0  0  0  0  0  0  0  0  0  0  0  0
    4.9512   10.6645    3.0195 C   0  0  0  0  0  0  0  0  0  0  0  0
    3.7128   11.4440    2.6105 C   0  0  0  0  0  0  0  0  0  0  0  0
    4.4688    9.5623    3.9507 C   0  0  0  0  0  0  0  0  0  0  0  0
    5.5927   10.0646    1.8168 C   0  0  0  0  0  0  0  0  0  0  0  0
    6.7084   10.8144    1.2124 C   0  0  0  0  0  0  0  0  0  0  0  0
    6.7095   12.2590    1.5781 C   0  0  0  0  0  0  0  0  0  0  0  0
  1  2  1  0
  2  3  2  0
  3  4  1  0
  4  5  2  0
  5  6  1  0
  6  7  1  0
  6  8  2  0
  8  9  1  0
  9 10  2  0
 10 11  1  0
 11 12  1  0
 11 13  2  0
 13 14  1  0
 14 15  2  0
 14 16  1  0
  3 17  1  0
 17 18  1  0
 17 19  1  0
 17 20  1  0
 20 21  1  0
 21 22  1  0
 22  2  1  0
M  END
>  <docking_score>  (2) 
-2.8809999999999998

$$$$

     RDKit          3D

 22 22  0  0  0  0  0  0  0  0999 V2000
    7.6963   11.8751    4.3327 C   0  0  0  0  0  0  0  0  0  0  0  0
    6.5689   11.4350    3.5031 C   0  0  0  0  0  0  0  0  0  0  0  0
    5.4240   10.9586    4.0180 C   0  0  0  0  0  0  0  0  0  0  0  0
    5.3212   10.8844    5.4625 C   0  0  0  0  0  0  0  0  0  0  0  0
    4.3150   11.3439    6.1539 C   0  0  0  0  0  0  0  0  0  0  0  0
    4.2331   11.2575    7.6143 C   0  0  0  0  0  0  0  0  0  0  0  0
    4.1226   12.4698    8.4731 C   0  0  0  0  0  0  0  0  0  0  0  0
    4.2525   10.1001    8.2530 C   0  0  0  0  0  0  0  0  0  0  0  0
    4.1714   10.0068    9.7055 C   0  0  0  0  0  0  0  0  0  0  0  0
    4.6690   10.8751   10.5321 C   0  0  0  0  0  0  0  0  0  0  0  0
    4.5604   10.7353   12.0004 C   0  0  0  0  0  0  0  0  0  0  0  0
    4.1083    9.4985   12.6525 C   0  0  0  0  0  0  0  0  0  0  0  0
    4.8816   11.7627   12.7683 C   0  0  0  0  0  0  0  0  0  0  0  0
    4.8095   11.7271   14.2172 C   0  0  0  0  0  0  0  0  0  0  0  0
    4.7297   10.6137   14.7823 O   0  0  0  0  0  0  0  0  0  0  0  0
    4.8277   12.8722   14.9561 O   0  0  0  0  0  0  0  0  0  0  0  0
    4.3385   10.5454    3.1033 C   0  0  0  0  0  0  0  0  0  0  0  0
    3.5085   11.7487    2.6888 C   0  0  0  0  0  0  0  0  0  0  0  0
    3.3940    9.6181    3.8533 C   0  0  0  0  0  0  0  0  0  0  0  0
    4.8697    9.8555    1.8950 C   0  0  0  0  0  0  0  0  0  0  0  0
    6.2407   10.2009    1.4788 C   0  0  0  0  0  0  0  0  0  0  0  0
    6.7020   11.5135    2.0128 C   0  0  0  0  0  0  0  0  0  0  0  0
  1  2  1  0
  2  3  2  0
  3  4  1  0
  4  5  2  0
  5  6  1  0
  6  7  1  0
  6  8  2  0
  8  9  1  0
  9 10  2  0
 10 11  1  0
 11 12  1  0
 11 13  2  0
 13 14  1  0
 14 15  2  0
 14 16  1  0
  3 17  1  0
 17 18  1  0
 17 19  1  0
 17 20  1  0
 20 21  1  0
 21 22  1  0
 22  2  1  0
M  END
>  <docking_score>  (3) 
-2.544

$$$$
