
     RDKit          3D

 30 30  0  0  0  0  0  0  0  0999 V2000
   18.7849   -3.1493   -1.9111 C   0  0  0  0  0  0  0  0  0  0  0  0
   19.6723   -2.9967   -3.1383 C   0  0  0  0  0  0  0  0  0  0  0  0
   20.9998   -2.3519   -2.7461 C   0  0  0  0  0  0  0  0  0  0  0  0
   18.9524   -2.1010   -4.1218 C   0  0  0  0  0  0  0  0  0  0  0  0
   17.5118   -1.9866   -3.6175 C   0  0  0  0  0  0  0  0  0  0  0  0
   16.6014   -2.0413   -4.8102 C   0  0  0  0  0  0  0  0  0  0  0  0
   15.1932   -2.3381   -4.3020 C   0  0  1  0  0  0  0  0  0  0  0  0
   14.5406   -1.0278   -3.8844 C   0  0  0  0  0  0  0  0  0  0  0  0
   14.3929   -3.0453   -5.3577 C   0  0  0  0  0  3  0  0  0  0  0  0
   15.2827   -4.1630   -5.9212 C   0  0  1  0  0  0  0  0  0  0  0  0
   15.4729   -5.2490   -4.9059 C   0  0  0  0  0  0  0  0  0  0  0  0
   16.6089   -6.1541   -5.1335 C   0  0  0  0  0  3  0  0  0  0  0  0
   16.3066   -7.6143   -5.0372 C   0  0  0  0  0  0  0  0  0  0  0  0
   17.8789   -5.7571   -4.4283 C   0  0  0  0  0  3  0  0  0  0  0  0
   18.4635   -6.9023   -3.6425 C   0  0  0  0  0  0  0  0  0  0  0  0
   19.3295   -7.7199   -4.5883 C   0  0  2  0  0  0  0  0  0  0  0  0
   20.4218   -8.3471   -3.8984 N   0  0  0  0  0  1  0  0  0  0  0  0
   19.7988   -6.8039   -5.6971 C   0  0  0  0  0  0  0  0  0  0  0  0
   20.8153   -7.4538   -6.5810 C   0  0  0  0  0  0  0  0  0  0  0  0
   20.3493   -7.4736   -8.0270 C   0  0  1  0  0  0  0  0  0  0  0  0
   20.8076   -8.6846   -8.5654 O   0  0  0  0  0  0  0  0  0  0  0  0
   18.8366   -7.4708   -8.0961 C   0  0  0  0  0  0  0  0  0  0  0  0
   18.3422   -6.1297   -8.5974 C   0  0  0  0  0  0  0  0  0  0  0  0
   18.8940   -4.9867   -7.7601 C   0  0  1  0  0  0  0  0  0  0  0  0
   19.9054   -4.2546   -8.6312 C   0  0  0  0  0  0  0  0  0  0  0  0
   17.8034   -3.9710   -7.4389 C   0  0  0  0  0  0  0  0  0  0  0  0
   16.7930   -4.0714   -8.4442 N   0  0  0  0  0  0  0  0  0  0  0  0
   15.4883   -4.5441   -8.2981 C   0  0  0  0  0  0  0  0  0  0  0  0
   14.7698   -4.6085   -7.2052 C   0  0  0  0  0  0  0  0  0  0  0  0
   13.1492   -5.2506   -7.3074 Cl  0  0  0  0  0  0  0  0  0  0  0  0
  1  2  1  0
  2  3  1  0
  2  4  1  0
  4  5  1  0
  5  6  1  0
  6  7  1  0
  7  8  1  6
  7  9  1  0
 10  9  1  1
 10 11  1  0
 11 12  1  0
 12 13  1  0
 12 14  1  0
 14 15  1  0
 15 16  1  0
 16 17  1  1
 16 18  1  0
 18 19  1  0
 19 20  1  0
 20 21  1  1
 20 22  1  0
 22 23  1  0
 23 24  1  0
 24 25  1  6
 24 26  1  0
 26 27  1  0
 27 28  1  0
 28 29  2  3
 29 30  1  0
 29 10  1  0
M  CHG  1  17   1
M  RAD  4   9   2  12   2  14   2  17   2
M  END
>  <docking_score>  (1) 
-4.5410000000000004

$$$$

     RDKit          3D

 30 30  0  0  0  0  0  0  0  0999 V2000
   17.7128   -8.0577   -7.6698 C   0  0  0  0  0  0  0  0  0  0  0  0
   18.9253   -7.1685   -7.9062 C   0  0  0  0  0  0  0  0  0  0  0  0
   19.9652   -7.9138   -8.7398 C   0  0  0  0  0  0  0  0  0  0  0  0
   19.5178   -6.8252   -6.5575 C   0  0  0  0  0  0  0  0  0  0  0  0
   19.7123   -8.1561   -5.8270 C   0  0  0  0  0  0  0  0  0  0  0  0
   19.7658   -7.8686   -4.3543 C   0  0  0  0  0  0  0  0  0  0  0  0
   21.0468   -7.0839   -4.0841 C   0  0  1  0  0  0  0  0  0  0  0  0
   21.3822   -6.2601   -5.3194 C   0  0  0  0  0  0  0  0  0  0  0  0
   20.8853   -6.2194   -2.8670 C   0  0  0  0  0  3  0  0  0  0  0  0
   19.7774   -5.2038   -3.1822 C   0  0  1  0  0  0  0  0  0  0  0  0
   18.4315   -5.7672   -2.8394 C   0  0  0  0  0  0  0  0  0  0  0  0
   17.2760   -5.1026   -3.4598 C   0  0  0  0  0  3  0  0  0  0  0  0
   16.1554   -4.7498   -2.5365 C   0  0  0  0  0  0  0  0  0  0  0  0
   16.8151   -5.7224   -4.7526 C   0  0  0  0  0  3  0  0  0  0  0  0
   15.3338   -5.9988   -4.7432 C   0  0  0  0  0  0  0  0  0  0  0  0
   14.6217   -4.7286   -5.1818 C   0  0  2  0  0  0  0  0  0  0  0  0
   13.3895   -5.0189   -5.8601 N   0  0  0  0  0  1  0  0  0  0  0  0
   15.5789   -3.9332   -6.0420 C   0  0  0  0  0  0  0  0  0  0  0  0
   14.9202   -2.7561   -6.6882 C   0  0  0  0  0  0  0  0  0  0  0  0
   15.6167   -1.4614   -6.3045 C   0  0  1  0  0  0  0  0  0  0  0  0
   14.6057   -0.4962   -6.1913 O   0  0  0  0  0  0  0  0  0  0  0  0
   16.2872   -1.6007   -4.9539 C   0  0  0  0  0  0  0  0  0  0  0  0
   17.7918   -1.6426   -5.1231 C   0  0  0  0  0  0  0  0  0  0  0  0
   18.2101   -2.7289   -6.1013 C   0  0  1  0  0  0  0  0  0  0  0  0
   18.6990   -2.0219   -7.3578 C   0  0  0  0  0  0  0  0  0  0  0  0
   19.4049   -3.5115   -5.5680 C   0  0  0  0  0  0  0  0  0  0  0  0
   20.1090   -2.6748   -4.6483 N   0  0  0  0  0  0  0  0  0  0  0  0
   20.2188   -2.8298   -3.2659 C   0  0  0  0  0  0  0  0  0  0  0  0
   20.0819   -3.9257   -2.5624 C   0  0  0  0  0  0  0  0  0  0  0  0
   20.2735   -3.8352   -0.8291 Cl  0  0  0  0  0  0  0  0  0  0  0  0
  1  2  1  0
  2  3  1  0
  2  4  1  0
  4  5  1  0
  5  6  1  0
  6  7  1  0
  7  8  1  6
  7  9  1  0
 10  9  1  1
 10 11  1  0
 11 12  1  0
 12 13  1  0
 12 14  1  0
 14 15  1  0
 15 16  1  0
 16 17  1  6
 16 18  1  0
 18 19  1  0
 19 20  1  0
 20 21  1  1
 20 22  1  0
 22 23  1  0
 23 24  1  0
 24 25  1  6
 24 26  1  0
 26 27  1  0
 27 28  1  0
 28 29  2  3
 29 30  1  0
 29 10  1  0
M  CHG  1  17   1
M  RAD  4   9   2  12   2  14   2  17   2
M  END
>  <docking_score>  (2) 
-3.2519999999999998

$$$$

     RDKit          3D

 30 30  0  0  0  0  0  0  0  0999 V2000
   18.7115   -7.6916   -4.7461 C   0  0  0  0  0  0  0  0  0  0  0  0
   17.3433   -7.1882   -5.1835 C   0  0  0  0  0  0  0  0  0  0  0  0
   16.3595   -8.3532   -5.2654 C   0  0  0  0  0  0  0  0  0  0  0  0
   17.4954   -6.5645   -6.5531 C   0  0  0  0  0  0  0  0  0  0  0  0
   18.1886   -7.6149   -7.4243 C   0  0  0  0  0  0  0  0  0  0  0  0
   19.1643   -6.9018   -8.3152 C   0  0  0  0  0  0  0  0  0  0  0  0
   20.1460   -6.1532   -7.4177 C   0  0  1  0  0  0  0  0  0  0  0  0
   21.3801   -7.0212   -7.2163 C   0  0  0  0  0  0  0  0  0  0  0  0
   20.4953   -4.8220   -8.0184 C   0  0  0  0  0  3  0  0  0  0  0  0
   19.5552   -3.7846   -7.3871 C   0  0  1  0  0  0  0  0  0  0  0  0
   19.9983   -3.4482   -5.9954 C   0  0  0  0  0  0  0  0  0  0  0  0
   18.9917   -2.8119   -5.1332 C   0  0  0  0  0  3  0  0  0  0  0  0
   19.4403   -1.5875   -4.4037 C   0  0  0  0  0  0  0  0  0  0  0  0
   18.2067   -3.7677   -4.2741 C   0  0  0  0  0  3  0  0  0  0  0  0
   18.2012   -3.3441   -2.8280 C   0  0  0  0  0  0  0  0  0  0  0  0
   17.0633   -2.3529   -2.6389 C   0  0  2  0  0  0  0  0  0  0  0  0
   16.5224   -2.4139   -1.3099 N   0  0  0  0  0  1  0  0  0  0  0  0
   16.0209   -2.6351   -3.6984 C   0  0  0  0  0  0  0  0  0  0  0  0
   14.7677   -1.8461   -3.4888 C   0  0  0  0  0  0  0  0  0  0  0  0
   14.4554   -0.9846   -4.7008 C   0  0  1  0  0  0  0  0  0  0  0  0
   13.9090    0.2058   -4.1998 O   0  0  0  0  0  0  0  0  0  0  0  0
   15.7267   -0.6406   -5.4480 C   0  0  0  0  0  0  0  0  0  0  0  0
   15.7765   -1.3928   -6.7618 C   0  0  0  0  0  0  0  0  0  0  0  0
   15.6054   -2.8889   -6.5514 C   0  0  1  0  0  0  0  0  0  0  0  0
   14.2304   -3.2529   -7.0942 C   0  0  0  0  0  0  0  0  0  0  0  0
   16.6086   -3.6748   -7.3881 C   0  0  0  0  0  0  0  0  0  0  0  0
   16.9924   -2.8630   -8.4996 N   0  0  0  0  0  0  0  0  0  0  0  0
   18.2364   -2.2785   -8.7399 C   0  0  0  0  0  0  0  0  0  0  0  0
   19.4044   -2.6440   -8.2740 C   0  0  0  0  0  0  0  0  0  0  0  0
   20.8144   -1.7253   -8.7400 Cl  0  0  0  0  0  0  0  0  0  0  0  0
  1  2  1  0
  2  3  1  0
  2  4  1  0
  4  5  1  0
  5  6  1  0
  6  7  1  0
  7  8  1  6
  7  9  1  0
 10  9  1  6
 10 11  1  0
 11 12  1  0
 12 13  1  0
 12 14  1  0
 14 15  1  0
 15 16  1  0
 16 17  1  1
 16 18  1  0
 18 19  1  0
 19 20  1  0
 20 21  1  1
 20 22  1  0
 22 23  1  0
 23 24  1  0
 24 25  1  6
 24 26  1  0
 26 27  1  0
 27 28  1  0
 28 29  2  3
 29 30  1  0
 29 10  1  0
M  CHG  1  17   1
M  RAD  4   9   2  12   2  14   2  17   2
M  END
>  <docking_score>  (3) 
-2.9929999999999999

$$$$
