
     RDKit          3D

 79 80  0  0  0  0  0  0  0  0999 V2000
    5.8544   15.9085    8.3673 O   0  0  0  0  0  0  0  0  0  0  0  0
    6.8947   14.8799    8.0358 C   0  0  0  0  0  0  0  0  0  0  0  0
    6.5438   13.7135    7.1603 C   0  0  0  0  0  3  0  0  0  0  0  0
    5.1127   13.4560    6.7919 N   0  0  0  0  0  0  0  0  0  0  0  0
    4.7286   13.2822    5.3524 C   0  0  0  0  0  0  0  0  0  0  0  0
    3.2846   13.3355    4.9498 C   0  0  0  0  0  0  0  0  0  0  0  0
    2.3919   14.4084    5.4994 O   0  0  0  0  0  0  0  0  0  0  0  0
    5.7884   13.0550    4.3155 C   0  0  0  0  0  0  0  0  0  0  0  0
    7.1595   13.6329    4.5054 O   0  0  0  0  0  0  0  0  0  0  0  0
    5.4772   12.2498    3.0888 C   0  0  0  0  0  0  0  0  0  0  0  0
    4.0865   11.7357    2.8620 O   0  0  0  0  0  0  0  0  0  0  0  0
    6.5567   11.9589    2.0887 C   0  0  0  0  0  3  0  0  0  0  0  0
    7.4946   10.8095    2.3106 C   0  0  0  0  0  0  0  0  0  0  0  0
    8.6274   10.5710    1.3565 Cl  0  0  0  0  0  0  0  0  0  0  0  0
    7.2999    9.8986    3.4862 C   0  0  0  0  0  0  0  0  0  0  0  0
    8.2559    9.9494    4.6409 O   0  0  0  0  0  0  0  0  0  0  0  0
    8.5754    8.6992    5.4057 C   0  0  0  0  0  0  0  0  0  0  0  0
    8.7229    7.9777    6.7125 O   0  0  0  0  0  0  0  0  0  0  0  0
    8.9812    7.2552    5.4236 C   0  0  0  0  0  0  0  0  0  0  0  0
    9.3406    5.8986    5.9530 O   0  0  0  0  0  0  0  0  0  0  0  0
    9.1146    7.0039    3.9508 O   0  0  0  0  0  0  0  0  0  0  0  0
    9.7262    5.7249    3.4606 N   0  0  0  0  0  0  0  0  0  0  0  0
    9.9068    5.4956    1.9894 C   0  0  0  0  0  0  0  0  0  0  0  0
   10.2263    4.1220    1.4782 O   0  0  0  0  0  0  0  0  0  0  0  0
    9.7679    6.6397    1.0293 C   0  0  0  0  0  0  0  0  0  0  0  0
   10.7156    7.7999    1.1032 O   0  0  0  0  0  0  0  0  0  0  0  0
    8.6813    6.6235   -0.0047 C   0  0  0  0  0  0  0  0  0  0  0  0
    8.0850    7.9983   -0.0719 O   0  0  0  0  0  0  0  0  0  0  0  0
    7.0449    8.8379   -0.7526 C   0  0  0  0  0  0  0  0  0  0  0  0
    5.9583    8.8218   -1.7865 C   0  0  0  0  0  0  0  0  0  0  0  0
    5.3620   10.1964   -1.8538 O   0  0  0  0  0  0  0  0  0  0  0  0
    5.2402    7.9560   -2.7788 C   0  0  0  0  0  3  0  0  0  0  0  0
    5.1649    6.5712   -3.3505 O   0  0  0  0  0  0  0  0  0  0  0  0
    5.7612    5.1964   -3.2833 O   0  0  0  0  0  0  0  0  0  0  0  0
    6.8013    4.3568   -2.6026 O   0  0  0  0  0  0  0  0  0  0  0  0
    7.8879    4.3729   -1.5687 C   0  0  0  0  0  3  0  0  0  0  0  0
    8.6060    5.2387   -0.5764 C   0  0  0  0  0  0  0  0  0  0  0  0
    9.6460    4.3991    0.1042 O   0  0  0  0  0  0  0  0  0  0  0  0
   10.4454    3.4073   -0.6879 N   0  0  0  0  0  0  0  0  0  0  0  0
    9.7640    2.5259   -1.6922 C   0  0  0  0  0  0  0  0  0  0  0  0
    9.0502    3.1348   -2.8626 O   0  0  0  0  0  0  0  0  0  0  0  0
    9.7962    1.0354   -1.5261 C   0  0  0  0  0  0  0  0  0  0  0  0
   10.4475    0.1782   -2.5707 C   0  0  0  0  0  0  0  0  0  0  0  0
    9.8338   -1.1365   -2.9514 C   0  0  0  0  0  0  0  0  0  0  0  0
    9.4461   -1.3985   -4.3766 C   0  0  0  0  0  0  0  0  0  0  0  0
    7.9975   -1.4457   -4.7632 C   0  0  0  0  0  0  0  0  0  0  0  0
   10.5069   -1.6133   -5.4150 O   0  0  0  0  0  0  0  0  0  0  0  0
   11.0965   -2.9783   -5.6137 C   0  0  0  0  0  3  0  0  0  0  0  0
   12.5698   -3.1318   -5.8497 C   0  0  0  0  0  0  0  0  0  0  0  0
   11.7123    0.6359   -3.2345 C   0  0  0  0  0  0  0  0  0  0  0  0
   12.9277    0.9344   -2.4077 O   0  0  0  0  0  0  0  0  0  0  0  0
   11.7617    0.7949   -4.7252 C   0  0  0  0  0  0  0  0  0  0  0  0
   12.8815    0.1766   -5.5088 C   0  0  0  0  0  0  0  0  0  0  0  0
   13.0310    0.4798   -6.9701 O   0  0  0  0  0  0  0  0  0  0  0  0
   13.8517   -0.7449   -4.8309 C   0  0  0  0  0  0  0  0  0  0  0  0
   14.7136   -1.6601   -5.6491 O   0  0  0  0  0  0  0  0  0  0  0  0
   16.2045   -1.6303   -5.4869 N   0  0  0  0  0  0  0  0  0  0  0  0
   16.8474   -2.3368   -4.3303 C   0  0  0  0  0  0  0  0  0  0  0  0
   16.1014   -2.4928   -3.0384 C   0  0  0  0  0  0  0  0  0  0  0  0
   15.7225   -3.8914   -3.4261 N   0  0  0  0  0  0  0  0  0  0  0  0
   15.3555   -2.6490   -1.7463 C   0  0  0  0  0  0  0  0  0  0  0  0
   16.4803   -1.0942   -2.6506 O   0  0  0  0  0  0  0  0  0  0  0  0
   15.4217   -0.0400   -2.5173 O   0  0  0  0  0  0  0  0  0  0  0  0
   14.9176    0.6749   -3.7359 N   0  0  0  0  0  0  0  0  0  0  0  0
   15.8878    1.3032   -4.6918 C   0  0  0  0  0  3  0  0  0  0  0  0
   15.8732    2.7876   -4.9079 C   0  0  0  0  0  0  0  0  0  0  0  0
   18.2362   -2.8872   -4.4657 C   0  0  0  0  0  0  0  0  0  0  0  0
   19.3163   -2.4365   -3.5276 O   0  0  0  0  0  0  0  0  0  0  0  0
   20.0181   -1.1320   -3.7635 N   0  0  0  0  0  3  0  0  0  0  0  0
   20.8703   -0.5329   -2.6841 N   0  0  0  0  0  0  0  0  0  0  0  0
   19.8679   -0.4265   -5.0786 C   0  0  0  0  0  0  0  0  0  0  0  0
   20.6581    0.8178   -5.3570 C   0  0  0  0  0  0  0  0  0  0  0  0
   21.0753    1.7100   -4.2258 O   0  0  0  0  0  0  0  0  0  0  0  0
   20.7680    3.1774   -4.2754 C   0  0  0  0  0  0  0  0  0  0  0  0
   21.2430    4.0808   -3.1762 O   0  0  0  0  0  0  0  0  0  0  0  0
   19.9855    3.7413   -5.4242 C   0  0  0  0  0  0  0  0  0  0  0  0
   18.6248    4.3273   -5.1892 C   0  0  0  0  0  0  0  0  0  0  0  0
   18.3697    5.7748   -5.4883 O   0  0  0  0  0  0  0  0  0  0  0  0
   18.8122    6.8302   -4.5186 C   0  0  0  0  0  2  0  0  0  0  0  0
  1  2  1  0
  2  3  1  0
  3  4  1  0
  4  5  1  0
  5  6  1  0
  6  7  1  0
  5  8  1  0
  8  9  1  0
  8 10  1  0
 10 11  1  0
 10 12  1  0
 12 13  1  0
 13 14  1  0
 13 15  1  0
 15 16  1  0
 17 16  1  0
 17 18  1  0
 17 19  1  0
 19 20  1  0
 19 21  1  0
 21 22  1  0
 22 23  1  0
 23 24  1  0
 23 25  1  0
 25 26  1  0
 25 27  1  0
 27 28  1  0
 28 29  1  0
 29 30  1  0
 30 31  1  0
 30 32  1  0
 32 33  1  0
 33 34  1  0
 34 35  1  0
 35 36  1  0
 36 37  1  0
 37 38  1  0
 38 39  1  0
 39 40  1  0
 40 41  1  0
 40 42  1  0
 43 42  1  0
 43 44  1  0
 44 45  1  0
 45 46  1  0
 45 47  1  0
 47 48  1  0
 48 49  1  0
 43 50  1  0
 50 51  1  0
 50 52  1  0
 52 53  1  0
 53 54  1  0
 53 55  1  0
 55 56  1  0
 56 57  1  0
 57 58  1  0
 58 59  1  0
 59 60  1  0
 59 61  1  0
 59 62  1  0
 62 63  1  0
 63 64  1  0
 64 65  1  0
 65 66  1  0
 58 67  1  0
 67 68  1  0
 68 69  1  0
 69 70  1  0
 69 71  1  0
 71 72  1  0
 72 73  1  0
 73 74  1  0
 74 75  1  0
 74 76  1  0
 76 77  1  0
 77 78  1  0
 78 79  1  0
 19 18  1  0
 37 27  1  0
M  RAD  8   3   2  12   2  32   2  36   2  48   2  65   2  69   2  79   3
M  CHG  1  69   1
M  END
>  <docking_score>  (1) 
72.703000000000003

$$$$

     RDKit          3D

 79 80  0  0  0  0  0  0  0  0999 V2000
    2.2837    3.9130    2.1847 O   0  0  0  0  0  0  0  0  0  0  0  0
    3.4401    4.8678    2.2156 C   0  0  0  0  0  0  0  0  0  0  0  0
    3.6827    5.7129    3.4309 C   0  0  0  0  0  3  0  0  0  0  0  0
    4.3209    7.0631    3.2902 N   0  0  0  0  0  0  0  0  0  0  0  0
    5.7674    7.2491    3.6409 C   0  0  0  0  0  0  0  0  0  0  0  0
    6.4123    6.3585    4.6612 C   0  0  0  0  0  0  0  0  0  0  0  0
    6.9050    6.9348    5.9555 O   0  0  0  0  0  0  0  0  0  0  0  0
    6.5691    8.3257    2.9713 C   0  0  0  0  0  0  0  0  0  0  0  0
    6.9695    8.1780    1.5333 O   0  0  0  0  0  0  0  0  0  0  0  0
    6.9702    9.5499    3.7396 C   0  0  0  0  0  0  0  0  0  0  0  0
    6.1979   10.8252    3.5750 O   0  0  0  0  0  0  0  0  0  0  0  0
    8.1438    9.4989    4.6725 C   0  0  0  0  0  3  0  0  0  0  0  0
    8.3894   10.6261    5.6311 C   0  0  0  0  0  0  0  0  0  0  0  0
    7.6954   11.9416    5.4356 Cl  0  0  0  0  0  0  0  0  0  0  0  0
    9.3289   10.4380    6.7851 C   0  0  0  0  0  0  0  0  0  0  0  0
    8.8709   10.7375    8.1817 O   0  0  0  0  0  0  0  0  0  0  0  0
    9.8455   10.6754    9.3202 C   0  0  0  0  0  0  0  0  0  0  0  0
   10.2844   10.0759   10.6233 O   0  0  0  0  0  0  0  0  0  0  0  0
   11.0947   11.1674    9.9892 C   0  0  0  0  0  0  0  0  0  0  0  0
   12.1952   11.2957   11.0003 O   0  0  0  0  0  0  0  0  0  0  0  0
   11.5228   12.2142    9.0039 O   0  0  0  0  0  0  0  0  0  0  0  0
   11.5742   13.6556    9.4159 N   0  0  0  0  0  0  0  0  0  0  0  0
   10.9116   14.0963   10.6874 C   0  0  0  0  0  0  0  0  0  0  0  0
   11.6107   13.9089   12.0013 O   0  0  0  0  0  0  0  0  0  0  0  0
    9.5501   14.7242   10.6451 C   0  0  0  0  0  0  0  0  0  0  0  0
    9.3656   16.0732   10.0159 O   0  0  0  0  0  0  0  0  0  0  0  0
    8.3730   14.0031   11.2321 C   0  0  0  0  0  0  0  0  0  0  0  0
    7.3362   13.8571   10.1580 O   0  0  0  0  0  0  0  0  0  0  0  0
    5.9679   13.3211    9.8569 C   0  0  0  0  0  0  0  0  0  0  0  0
    4.7908   12.6000   10.4438 C   0  0  0  0  0  0  0  0  0  0  0  0
    3.7540   12.4540    9.3698 O   0  0  0  0  0  0  0  0  0  0  0  0
    4.2545   11.9693   11.6946 C   0  0  0  0  0  3  0  0  0  0  0  0
    4.5638   11.6697   13.1315 O   0  0  0  0  0  0  0  0  0  0  0  0
    5.6006   11.8158   14.2057 O   0  0  0  0  0  0  0  0  0  0  0  0
    6.9689   12.3517   14.5067 O   0  0  0  0  0  0  0  0  0  0  0  0
    8.1460   13.0728   13.9198 C   0  0  0  0  0  3  0  0  0  0  0  0
    8.6823   13.7036   12.6690 C   0  0  0  0  0  0  0  0  0  0  0  0
   10.0505   14.2395   12.9701 O   0  0  0  0  0  0  0  0  0  0  0  0
   11.2530   13.3565   12.8137 N   0  0  0  0  0  0  0  0  0  0  0  0
   11.6215   12.3917   13.9015 C   0  0  0  0  0  0  0  0  0  0  0  0
   10.9448   11.0553   13.9797 O   0  0  0  0  0  0  0  0  0  0  0  0
   12.6669   12.7633   14.9111 C   0  0  0  0  0  0  0  0  0  0  0  0
   12.8738   11.9081   16.1260 C   0  0  0  0  0  0  0  0  0  0  0  0
   13.3681   12.5239   17.4013 C   0  0  0  0  0  0  0  0  0  0  0  0
   13.3952   11.7144   18.6638 C   0  0  0  0  0  0  0  0  0  0  0  0
   12.8734   12.3008   19.9420 C   0  0  0  0  0  0  0  0  0  0  0  0
   13.9442   10.3186   18.6480 O   0  0  0  0  0  0  0  0  0  0  0  0
   14.2841    9.6317   19.9375 C   0  0  0  0  0  3  0  0  0  0  0  0
   14.8643    8.2486   19.9204 C   0  0  0  0  0  0  0  0  0  0  0  0
   12.5863   10.4372   16.0655 C   0  0  0  0  0  0  0  0  0  0  0  0
   11.4676    9.8575   16.8794 O   0  0  0  0  0  0  0  0  0  0  0  0
   13.4175    9.5460   15.1910 C   0  0  0  0  0  0  0  0  0  0  0  0
   13.1349    8.0738   15.1362 C   0  0  0  0  0  0  0  0  0  0  0  0
   11.9538    7.5092   15.8684 O   0  0  0  0  0  0  0  0  0  0  0  0
   14.0334    7.1664   14.3493 C   0  0  0  0  0  0  0  0  0  0  0  0
   14.1335    5.7137   14.7092 O   0  0  0  0  0  0  0  0  0  0  0  0
   15.1652    4.8471   14.0500 N   0  0  0  0  0  0  0  0  0  0  0  0
   15.0286    4.4895   12.5996 C   0  0  0  0  0  0  0  0  0  0  0  0
   13.6825    4.5357   11.9394 C   0  0  0  0  0  0  0  0  0  0  0  0
   13.3475    5.7787   12.7094 N   0  0  0  0  0  0  0  0  0  0  0  0
   12.3364    4.5820   11.2791 C   0  0  0  0  0  0  0  0  0  0  0  0
   14.0175    3.2927   11.1693 O   0  0  0  0  0  0  0  0  0  0  0  0
   12.9472    2.2860   10.8679 O   0  0  0  0  0  0  0  0  0  0  0  0
   11.5097    2.6143   11.1436 N   0  0  0  0  0  0  0  0  0  0  0  0
   10.5069    1.5113   11.3094 C   0  0  0  0  0  3  0  0  0  0  0  0
   10.9641    0.0835   11.3605 C   0  0  0  0  0  0  0  0  0  0  0  0
   16.2380    4.0857   11.8095 C   0  0  0  0  0  0  0  0  0  0  0  0
   16.1212    3.0384   10.7421 O   0  0  0  0  0  0  0  0  0  0  0  0
   16.5018    1.6184   11.0399 N   0  0  0  0  0  3  0  0  0  0  0  0
   16.8673    1.2174   12.4383 N   0  0  0  0  0  0  0  0  0  0  0  0
   16.5169    0.5993    9.9393 C   0  0  0  0  0  0  0  0  0  0  0  0
   15.2288    0.1481    9.3171 C   0  0  0  0  0  0  0  0  0  0  0  0
   15.2474   -0.8277    8.1780 O   0  0  0  0  0  0  0  0  0  0  0  0
   15.2370   -0.3292    6.7633 C   0  0  0  0  0  0  0  0  0  0  0  0
   15.3961   -1.2949    5.6266 O   0  0  0  0  0  0  0  0  0  0  0  0
   15.0674    1.1350    6.4853 C   0  0  0  0  0  0  0  0  0  0  0  0
   14.1376    1.5896    5.3995 C   0  0  0  0  0  0  0  0  0  0  0  0
   13.4237    0.5790    4.5516 O   0  0  0  0  0  0  0  0  0  0  0  0
   13.9934   -0.7989    4.3876 C   0  0  0  0  0  2  0  0  0  0  0  0
  1  2  1  0
  2  3  1  0
  3  4  1  0
  4  5  1  0
  5  6  1  0
  6  7  1  0
  5  8  1  0
  8  9  1  0
  8 10  1  0
 10 11  1  0
 10 12  1  0
 12 13  1  0
 13 14  1  0
 13 15  1  0
 15 16  1  0
 17 16  1  0
 17 18  1  0
 17 19  1  0
 19 20  1  0
 19 21  1  0
 21 22  1  0
 22 23  1  0
 23 24  1  0
 23 25  1  0
 25 26  1  0
 25 27  1  0
 27 28  1  0
 28 29  1  0
 29 30  1  0
 30 31  1  0
 30 32  1  0
 32 33  1  0
 33 34  1  0
 34 35  1  0
 35 36  1  0
 36 37  1  0
 37 38  1  0
 38 39  1  0
 39 40  1  0
 40 41  1  0
 40 42  1  0
 43 42  1  0
 43 44  1  0
 44 45  1  0
 45 46  1  0
 45 47  1  0
 47 48  1  0
 48 49  1  0
 43 50  1  0
 50 51  1  0
 50 52  1  0
 52 53  1  0
 53 54  1  0
 53 55  1  0
 55 56  1  0
 56 57  1  0
 57 58  1  0
 58 59  1  0
 59 60  1  0
 59 61  1  0
 59 62  1  0
 62 63  1  0
 63 64  1  0
 64 65  1  0
 65 66  1  0
 58 67  1  0
 67 68  1  0
 68 69  1  0
 69 70  1  0
 69 71  1  0
 71 72  1  0
 72 73  1  0
 73 74  1  0
 74 75  1  0
 74 76  1  0
 76 77  1  0
 77 78  1  0
 78 79  1  0
 19 18  1  0
 37 27  1  0
M  RAD  8   3   2  12   2  32   2  36   2  48   2  65   2  69   2  79   3
M  CHG  1  69   1
M  END
>  <docking_score>  (2) 
74.328999999999994

$$$$
