
     RDKit          3D

 18 18  0  0  0  0  0  0  0  0999 V2000
   11.1611   -0.0127   21.5903 C   0  0  0  0  0  0  0  0  0  0  0  0
   11.7845   -1.3552   21.3512 C   0  0  0  0  0  0  0  0  0  0  0  0
   11.0067   -2.2058   20.3744 C   0  0  0  0  0  0  0  0  0  0  0  0
   11.2715   -1.6615   18.9661 C   0  0  0  0  0  0  0  0  0  0  0  0
    9.8809   -1.4795   18.3420 C   0  0  0  0  0  0  0  0  0  0  0  0
    9.4112   -0.0974   18.6627 C   0  0  0  0  0  0  0  0  0  0  0  0
    9.0163   -0.0336   20.0973 C   0  0  0  0  0  0  0  0  0  0  0  0
    7.6208   -0.0020   20.2710 O   0  0  0  0  0  0  0  0  0  0  0  0
    9.6985   -0.0011   21.2269 C   0  0  0  0  0  0  0  0  0  0  0  0
    8.8151    0.0601   22.3784 C   0  0  0  0  0  0  0  0  0  0  0  0
    8.3908   -1.1392   22.9330 O   0  0  0  0  0  0  0  0  0  0  0  0
    8.4202    1.2329   22.8915 C   0  0  0  0  0  0  0  0  0  0  0  0
    7.5394    1.2318   24.0396 C   0  0  0  0  0  0  0  0  0  0  0  0
    6.2996    1.0548   23.9652 O   0  0  0  0  0  0  0  0  0  0  0  0
    8.1080    1.4496   25.3898 C   0  0  0  0  0  0  0  0  0  0  0  0
    7.3900    2.4537   25.9928 F   0  0  0  0  0  0  0  0  0  0  0  0
    8.8479    2.5381   22.3323 C   0  0  0  0  0  0  0  0  0  0  0  0
    9.6489    3.1467   23.2906 F   0  0  0  0  0  0  0  0  0  0  0  0
  1  2  1  0
  2  3  1  0
  3  4  1  0
  4  5  1  0
  5  6  1  0
  6  7  1  0
  7  8  1  0
  7  9  2  3
  9 10  1  0
 10 11  1  0
 10 12  2  3
 12 13  1  0
 13 14  2  0
 13 15  1  0
 15 16  1  0
 12 17  1  0
 17 18  1  0
  9  1  1  0
M  END
>  <docking_score>  (1) 
-4.7949999999999999

$$$$

     RDKit          3D

 18 18  0  0  0  0  0  0  0  0999 V2000
   10.7154   -2.9210   16.8648 C   0  0  0  0  0  0  0  0  0  0  0  0
   12.1442   -3.2972   16.6096 C   0  0  0  0  0  0  0  0  0  0  0  0
   12.7979   -3.9810   17.7876 C   0  0  0  0  0  0  0  0  0  0  0  0
   12.2695   -5.4187   17.8464 C   0  0  0  0  0  0  0  0  0  0  0  0
   11.8040   -5.6126   19.2963 C   0  0  0  0  0  0  0  0  0  0  0  0
   10.3686   -5.2043   19.3759 C   0  0  0  0  0  0  0  0  0  0  0  0
   10.2764   -3.7191   19.3142 C   0  0  0  0  0  0  0  0  0  0  0  0
    9.9833   -3.1450   20.5645 O   0  0  0  0  0  0  0  0  0  0  0  0
   10.4118   -2.8401   18.3387 C   0  0  0  0  0  0  0  0  0  0  0  0
   10.2193   -1.4824   18.8178 C   0  0  0  0  0  0  0  0  0  0  0  0
   11.2732   -0.8769   19.4875 O   0  0  0  0  0  0  0  0  0  0  0  0
    9.0645   -0.8321   18.6221 C   0  0  0  0  0  0  0  0  0  0  0  0
    8.9305    0.5192   19.1221 C   0  0  0  0  0  0  0  0  0  0  0  0
    9.0473    1.5415   18.4042 O   0  0  0  0  0  0  0  0  0  0  0  0
    8.6394    0.7355   20.5581 C   0  0  0  0  0  0  0  0  0  0  0  0
    7.4869    0.0525   20.8623 F   0  0  0  0  0  0  0  0  0  0  0  0
    7.9122   -1.4388   17.9126 C   0  0  0  0  0  0  0  0  0  0  0  0
    7.8333   -0.8248   16.6688 F   0  0  0  0  0  0  0  0  0  0  0  0
  1  2  1  0
  2  3  1  0
  3  4  1  0
  4  5  1  0
  5  6  1  0
  6  7  1  0
  7  8  1  0
  7  9  2  3
  9 10  1  0
 10 11  1  0
 10 12  2  3
 12 13  1  0
 13 14  2  0
 13 15  1  0
 15 16  1  0
 12 17  1  0
 17 18  1  0
  9  1  1  0
M  END
>  <docking_score>  (2) 
-4.7080000000000002

$$$$

     RDKit          3D

 18 18  0  0  0  0  0  0  0  0999 V2000
   11.0050    0.2385   22.3330 C   0  0  0  0  0  0  0  0  0  0  0  0
   10.9806    1.6926   22.6978 C   0  0  0  0  0  0  0  0  0  0  0  0
    9.5888    2.2803   22.7032 C   0  0  0  0  0  0  0  0  0  0  0  0
    8.8799    1.7926   23.9718 C   0  0  0  0  0  0  0  0  0  0  0  0
    7.5367    1.2303   23.4859 C   0  0  0  0  0  0  0  0  0  0  0  0
    7.7310   -0.2188   23.1762 C   0  0  0  0  0  0  0  0  0  0  0  0
    8.4954   -0.3511   21.9049 C   0  0  0  0  0  0  0  0  0  0  0  0
    7.6840   -0.7505   20.8275 O   0  0  0  0  0  0  0  0  0  0  0  0
    9.7634   -0.1726   21.5844 C   0  0  0  0  0  0  0  0  0  0  0  0
    9.9970   -0.4398   20.1758 C   0  0  0  0  0  0  0  0  0  0  0  0
    9.8369    0.6102   19.2826 O   0  0  0  0  0  0  0  0  0  0  0  0
   10.3553   -1.6578   19.7483 C   0  0  0  0  0  0  0  0  0  0  0  0
   10.5744   -1.8647   18.3330 C   0  0  0  0  0  0  0  0  0  0  0  0
   11.7108   -1.9008   17.8027 O   0  0  0  0  0  0  0  0  0  0  0  0
    9.4085   -2.0468   17.4378 C   0  0  0  0  0  0  0  0  0  0  0  0
    8.2818   -2.1137   18.2211 F   0  0  0  0  0  0  0  0  0  0  0  0
   10.5381   -2.8086   20.6656 C   0  0  0  0  0  0  0  0  0  0  0  0
    9.6374   -3.7895   20.2696 F   0  0  0  0  0  0  0  0  0  0  0  0
  1  2  1  0
  2  3  1  0
  3  4  1  0
  4  5  1  0
  5  6  1  0
  6  7  1  0
  7  8  1  0
  7  9  2  3
  9 10  1  0
 10 11  1  0
 10 12  2  3
 12 13  1  0
 13 14  2  0
 13 15  1  0
 15 16  1  0
 12 17  1  0
 17 18  1  0
  9  1  1  0
M  END
>  <docking_score>  (3) 
-4.6130000000000004

$$$$
