
     RDKit          3D

 51 54  0  0  0  0  0  0  0  0999 V2000
    5.6156   11.7059    6.7789 C   0  0  0  0  0  0  0  0  0  0  0  0
    6.5829   12.8700    6.8563 C   0  0  1  0  0  0  0  0  0  0  0  0
    6.6228   13.5261    5.5187 C   0  0  0  0  0  0  0  0  0  0  0  0
    7.5060   14.7523    5.4858 C   0  0  2  0  0  0  0  0  0  0  0  0
    8.8375   14.4353    5.2426 O   0  0  0  0  0  0  0  0  0  0  0  0
    7.3319   15.5906    6.7367 C   0  0  2  0  0  0  0  0  0  0  0  0
    8.3456   15.2056    7.6136 O   0  0  0  0  0  0  0  0  0  0  0  0
    6.0019   15.1772    7.3708 C   0  0  1  0  0  0  0  0  0  0  0  0
    5.0596   15.0387    6.3559 O   0  0  0  0  0  0  0  0  0  0  0  0
    6.2512   13.8025    8.0021 C   0  0  1  0  0  0  0  0  0  0  0  0
    4.9396   13.4155    8.6614 C   0  0  2  0  0  0  0  0  0  0  0  0
    4.4321   12.2366    8.1079 O   0  0  0  0  0  0  0  0  0  0  0  0
    3.9226   14.5331    8.6173 C   0  0  0  0  0  1  0  0  0  0  0  0
    5.2241   13.1104   10.1166 C   0  0  0  0  0  0  0  0  0  0  0  0
    5.0307   14.2745   11.0293 C   0  0  1  0  0  0  0  0  0  0  0  0
    3.9171   14.2761   11.8050 O   0  0  0  0  0  0  0  0  0  0  0  0
    4.0230   13.7647   13.0687 C   0  0  1  0  0  0  0  0  0  0  0  0
    4.4651   12.4574   13.1203 O   0  0  0  0  0  0  0  0  0  0  0  0
    4.8285   14.6396   14.0248 C   0  0  2  0  0  0  0  0  0  0  0  0
    4.9370   15.9357   13.5509 O   0  0  0  0  0  0  0  0  0  0  0  0
    6.1849   13.9649   14.1760 C   0  0  1  0  0  0  0  0  0  0  0  0
    6.5025   13.4018   12.7806 C   0  0  0  0  0  0  0  0  0  0  0  0
    6.2683   14.5445   11.8186 C   0  0  1  0  0  0  0  0  0  0  0  0
    7.4657   14.6774   10.8911 C   0  0  0  0  0  0  0  0  0  0  0  0
    8.6246   14.2060   11.5142 O   0  0  0  0  0  0  0  0  0  0  0  0
    8.8353   14.8595   12.6504 O   0  0  0  0  0  0  0  0  0  0  0  0
    8.0640   16.0263   12.6343 C   0  0  0  0  0  3  0  0  0  0  0  0
    7.1929   16.0737   13.7273 O   0  0  0  0  0  0  0  0  0  0  0  0
    7.2764   14.9316   14.5086 C   0  0  1  0  0  0  0  0  0  0  0  0
    7.3707   15.2461   15.8709 O   0  0  0  0  0  0  0  0  0  0  0  0
    6.9231   14.3098   16.7974 C   0  0  0  0  0  0  0  0  0  0  0  0
    7.4148   14.5555   18.3555 S   0  0  0  0  0  3  0  0  0  0  0  0
    6.8744   13.4075   19.5316 O   0  0  0  0  0  0  0  0  0  0  0  0
    5.4834   13.6148   19.6687 C   0  0  0  0  0  0  0  0  0  0  0  0
    4.7977   12.7198   18.8510 O   0  0  0  0  0  0  0  0  0  0  0  0
    3.4450   13.0432   18.8684 C   0  0  2  0  0  0  0  0  0  0  0  0
    2.7154   11.9436   19.3600 O   0  0  0  0  0  1  0  0  0  0  0  0
    3.0011   13.2897   17.4431 C   0  0  0  0  0  0  0  0  0  0  0  0
    2.2578   12.1907   17.0100 O   0  0  0  0  0  0  0  0  0  0  0  0
    3.0687   11.3871   16.2158 C   0  0  0  0  0  3  0  0  0  0  0  0
    4.4841   11.8754   16.2192 C   0  0  0  0  0  3  0  0  0  0  0  0
    5.2875   11.2132   15.1156 C   0  0  0  0  0  0  0  0  0  0  0  0
    4.9466    9.8537   15.1076 O   0  0  0  0  0  0  0  0  0  0  0  0
    3.9204    9.5861   14.2120 C   0  0  0  0  0  3  0  0  0  0  0  0
    4.2530   10.2825   12.8988 C   0  0  0  0  0  3  0  0  0  0  0  0
    3.8977    9.3427   11.7770 C   0  0  1  0  0  0  0  0  0  0  0  0
    4.7894    8.1231   11.8681 C   0  0  0  0  0  0  0  0  0  0  0  0
    2.5500    9.0051   11.7569 O   0  0  0  0  0  0  0  0  0  0  0  0
    2.2576    8.1503   12.7148 O   0  0  0  0  0  0  0  0  0  0  0  0
    2.9715    6.9591   12.5046 C   0  0  0  0  0  0  0  0  0  0  0  0
    4.3165    7.1834   12.7724 O   0  0  0  0  0  0  0  0  0  0  0  0
  2  1  1  6
  2  3  1  0
  3  4  1  0
  4  5  1  1
  4  6  1  0
  6  7  1  1
  6  8  1  0
  8  9  1  6
  8 10  1  0
 10 11  1  6
 11 12  1  0
 11 13  1  1
 11 14  1  0
 15 14  1  1
 15 16  1  0
 16 17  1  0
 17 18  1  6
 17 19  1  0
 19 20  1  6
 19 21  1  0
 21 22  1  6
 22 23  1  0
 23 24  1  6
 24 25  1  0
 25 26  1  0
 26 27  1  0
 27 28  1  0
 28 29  1  0
 29 30  1  1
 30 31  1  0
 31 32  2  3
 32 33  1  0
 33 34  1  0
 34 35  1  0
 35 36  1  0
 36 37  1  6
 36 38  1  0
 38 39  1  0
 39 40  1  0
 40 41  1  0
 41 42  1  0
 42 43  1  0
 43 44  1  0
 44 45  1  0
 46 45  1  1
 46 47  1  0
 46 48  1  0
 48 49  1  0
 49 50  1  0
 50 51  1  0
 10  2  1  0
 23 15  1  0
 29 21  1  0
 51 47  1  0
M  CHG  2  32   1  37  -1
M  RAD  6  13   2  27   2  40   2  41   2  44   2  45   2
M  END
>  <docking_score>  (1) 
0.40400000000000003

$$$$
