
     RDKit          3D

 39 41  0  0  0  0  0  0  0  0999 V2000
    3.0765    6.0486    6.7348 C   0  0  0  0  0  0  0  0  0  0  0  0
    3.2185    7.5321    6.6900 C   0  0  0  0  0  0  0  0  0  0  0  0
    2.2650    8.2540    7.0940 O   0  0  0  0  0  0  0  0  0  0  0  0
    4.3516    8.1724    6.2244 O   0  0  0  0  0  0  0  0  0  0  0  0
    4.8407    7.8892    4.9287 C   0  0  0  0  0  3  0  0  0  0  0  0
    3.7448    7.8220    3.9481 C   0  0  0  0  0  0  0  0  0  0  0  0
    3.6513    6.6333    3.0569 C   0  0  0  0  0  0  0  0  0  0  0  0
    2.9302    8.7087    3.8589 O   0  0  0  0  0  0  0  0  0  0  0  0
    5.8867    8.8687    4.5065 C   0  0  0  0  0  0  0  0  0  0  0  0
    5.5076   10.3017    4.6563 C   0  0  0  0  0  0  0  0  0  0  0  0
    6.5859   11.0769    5.3818 C   0  0  0  0  0  3  0  0  0  0  0  0
    6.9409   12.2984    4.6582 C   0  0  1  0  0  0  0  0  0  0  0  0
    7.5944   12.2113    3.3493 C   0  0  0  0  0  0  0  0  0  0  0  0
    6.6688   11.6806    2.2608 C   0  0  2  0  0  0  0  0  0  0  0  0
    6.7678   12.5356    1.0251 C   0  0  0  0  0  0  0  0  0  0  0  0
    5.2989   11.7917    2.8217 C   0  0  0  0  0  0  0  0  0  0  0  0
    4.6508   12.9432    2.5759 C   0  0  0  0  0  0  0  0  0  0  0  0
    3.3165   13.1943    3.0567 C   0  0  0  0  0  0  0  0  0  0  0  0
    2.4784   13.7336    2.3041 O   0  0  0  0  0  0  0  0  0  0  0  0
    2.9190   12.8230    4.4328 C   0  0  0  0  0  0  0  0  0  0  0  0
    4.1346   12.6185    5.3133 C   0  0  0  0  0  0  0  0  0  0  0  0
    5.0278   13.8062    5.3581 C   0  0  2  0  0  0  0  0  0  0  0  0
    4.5330   15.0212    4.5781 C   0  0  0  0  0  0  0  0  0  0  0  0
    6.4742   13.5661    5.1752 C   0  0  2  0  0  0  0  0  0  0  0  0
    7.2209   14.7890    4.7982 C   0  0  0  0  0  0  0  0  0  0  0  0
    6.5990   16.0306    5.3974 C   0  0  0  0  0  0  0  0  0  0  0  0
    5.1466   15.8708    5.6986 C   0  0  0  0  0  3  0  0  0  0  0  0
    4.8694   14.6717    6.6177 C   0  0  2  0  0  0  0  0  0  0  0  0
    6.0480   14.4868    7.5509 C   0  0  0  0  0  0  0  0  0  0  0  0
    5.8177   15.1469    8.8659 C   0  0  0  0  0  0  0  0  0  0  0  0
    4.5344   14.6643    9.4811 C   0  0  0  0  0  0  0  0  0  0  0  0
    4.8471   13.9246   10.7721 C   0  0  2  0  0  0  0  0  0  0  0  0
    6.0807   14.4235   11.3967 C   0  0  0  0  0  0  0  0  0  0  0  0
    6.0933   15.4535   12.0554 O   0  0  0  0  0  0  0  0  0  0  0  0
    4.8484   12.4305   10.5504 C   0  0  0  0  0  0  0  0  0  0  0  0
    3.8030   11.7385   11.2397 N   0  0  0  0  0  3  0  0  0  0  0  0
    2.5313   11.7615   10.5504 C   0  0  0  0  0  0  0  0  0  0  0  0
    4.1879   10.3462   11.3139 C   0  0  0  0  0  0  0  0  0  0  0  0
    4.8584    9.8143   10.4562 O   0  0  0  0  0  0  0  0  0  0  0  0
  1  2  1  0
  2  3  2  0
  2  4  1  0
  4  5  1  0
  5  6  1  0
  6  7  1  0
  6  8  2  0
  5  9  1  0
  9 10  1  0
 10 11  1  0
 12 11  1  6
 12 13  1  0
 13 14  1  0
 14 15  1  6
 14 16  1  0
 16 17  2  3
 17 18  1  0
 18 19  2  0
 18 20  1  0
 20 21  1  0
 22 21  1  1
 22 23  1  0
 22 24  1  0
 24 25  1  6
 25 26  1  0
 26 27  1  0
 27 28  1  0
 28 29  1  1
 29 30  1  0
 30 31  1  0
 32 31  1  6
 32 33  1  0
 33 34  2  0
 32 35  1  0
 35 36  1  0
 36 37  1  0
 36 38  1  0
 38 39  2  0
 24 12  1  0
 28 22  1  0
 27 23  1  0
M  CHG  1  36   1
M  RAD  4   5   2  11   2  27   2  36   2
M  END
>  <docking_score>  (1) 
-3.6269999999999998

$$$$

     RDKit          3D

 39 41  0  0  0  0  0  0  0  0999 V2000
   14.2710   -4.8544   -6.8898 C   0  0  0  0  0  0  0  0  0  0  0  0
   13.6313   -4.2308   -5.6962 C   0  0  0  0  0  0  0  0  0  0  0  0
   12.5158   -4.6670   -5.2975 O   0  0  0  0  0  0  0  0  0  0  0  0
   14.1981   -3.1863   -4.9900 O   0  0  0  0  0  0  0  0  0  0  0  0
   14.0824   -1.8627   -5.4726 C   0  0  0  0  0  3  0  0  0  0  0  0
   14.3928   -0.8823   -4.4193 C   0  0  0  0  0  0  0  0  0  0  0  0
   13.3530    0.1109   -4.0345 C   0  0  0  0  0  0  0  0  0  0  0  0
   15.4680   -0.8740   -3.8699 O   0  0  0  0  0  0  0  0  0  0  0  0
   14.9259   -1.6410   -6.6854 C   0  0  0  0  0  0  0  0  0  0  0  0
   16.3737   -1.4163   -6.4156 C   0  0  0  0  0  0  0  0  0  0  0  0
   17.2240   -2.4648   -7.0995 C   0  0  0  0  0  3  0  0  0  0  0  0
   18.6129   -2.4041   -6.6426 C   0  0  1  0  0  0  0  0  0  0  0  0
   19.2555   -1.1058   -6.4205 C   0  0  0  0  0  0  0  0  0  0  0  0
   18.6901   -0.3652   -5.2143 C   0  0  2  0  0  0  0  0  0  0  0  0
   19.8063    0.1744   -4.3595 C   0  0  0  0  0  0  0  0  0  0  0  0
   17.9368   -1.3864   -4.4442 C   0  0  0  0  0  0  0  0  0  0  0  0
   18.6304   -2.0466   -3.5012 C   0  0  0  0  0  0  0  0  0  0  0  0
   18.0328   -3.0651   -2.6764 C   0  0  0  0  0  0  0  0  0  0  0  0
   18.2841   -3.0979   -1.4535 O   0  0  0  0  0  0  0  0  0  0  0  0
   17.1223   -4.0780   -3.2547 C   0  0  0  0  0  0  0  0  0  0  0  0
   17.2926   -4.1676   -4.7572 C   0  0  0  0  0  0  0  0  0  0  0  0
   18.6903   -4.4643   -5.1683 C   0  0  2  0  0  0  0  0  0  0  0  0
   19.6711   -4.6900   -4.0209 C   0  0  0  0  0  0  0  0  0  0  0  0
   19.2633   -3.6346   -6.2484 C   0  0  2  0  0  0  0  0  0  0  0  0
   20.7432   -3.6853   -6.2942 C   0  0  0  0  0  0  0  0  0  0  0  0
   21.2710   -5.0258   -5.8337 C   0  0  0  0  0  0  0  0  0  0  0  0
   20.3333   -5.7417   -4.9206 C   0  0  0  0  0  3  0  0  0  0  0  0
   18.9427   -5.9324   -5.5444 C   0  0  2  0  0  0  0  0  0  0  0  0
   19.0950   -6.0866   -7.0435 C   0  0  0  0  0  0  0  0  0  0  0  0
   19.7759   -7.3625   -7.3992 C   0  0  0  0  0  0  0  0  0  0  0  0
   19.9257   -8.2367   -6.1862 C   0  0  0  0  0  0  0  0  0  0  0  0
   19.1699   -9.5366   -6.4114 C   0  0  2  0  0  0  0  0  0  0  0  0
   18.7827   -9.7006   -7.8199 C   0  0  0  0  0  0  0  0  0  0  0  0
   19.6124   -9.6838   -8.7179 O   0  0  0  0  0  0  0  0  0  0  0  0
   18.0098   -9.6585   -5.4519 C   0  0  0  0  0  0  0  0  0  0  0  0
   16.7862   -9.1035   -5.9440 N   0  0  0  0  0  3  0  0  0  0  0  0
   15.6598  -10.0080   -5.8670 C   0  0  0  0  0  0  0  0  0  0  0  0
   16.4524   -7.9822   -5.0936 C   0  0  0  0  0  0  0  0  0  0  0  0
   15.8601   -7.0100   -5.5085 O   0  0  0  0  0  0  0  0  0  0  0  0
  1  2  1  0
  2  3  2  0
  2  4  1  0
  4  5  1  0
  5  6  1  0
  6  7  1  0
  6  8  2  0
  5  9  1  0
  9 10  1  0
 10 11  1  0
 12 11  1  1
 12 13  1  0
 13 14  1  0
 14 15  1  1
 14 16  1  0
 16 17  2  3
 17 18  1  0
 18 19  2  0
 18 20  1  0
 20 21  1  0
 22 21  1  1
 22 23  1  0
 22 24  1  0
 24 25  1  1
 25 26  1  0
 26 27  1  0
 27 28  1  0
 28 29  1  6
 29 30  1  0
 30 31  1  0
 32 31  1  6
 32 33  1  0
 33 34  2  0
 32 35  1  0
 35 36  1  0
 36 37  1  0
 36 38  1  0
 38 39  2  0
 24 12  1  0
 28 22  1  0
 27 23  1  0
M  CHG  1  36   1
M  RAD  4   5   2  11   2  27   2  36   2
M  END
>  <docking_score>  (2) 
-0.95899999999999996

$$$$
