
     RDKit          3D

 20 19  0  0  0  0  0  0  0  0999 V2000
   13.9502   -0.0586   -3.5108 O   0  0  0  0  0  0  0  0  0  0  0  0
   13.6995   -0.5578   -4.7781 C   0  0  0  0  0  0  0  0  0  0  0  0
   14.4299   -1.8490   -5.0433 C   0  0  0  0  0  3  0  0  0  0  0  0
   15.8497   -1.6152   -5.1755 N   0  0  0  0  0  0  0  0  0  0  0  0
   16.3589   -2.6042   -6.1049 C   0  0  2  0  0  0  0  0  0  0  0  0
   17.5607   -2.0823   -6.8367 C   0  0  0  0  0  0  0  0  0  0  0  0
   18.7573   -2.6462   -6.4018 O   0  0  0  0  0  0  0  0  0  0  0  0
   15.2778   -3.1067   -7.0003 C   0  0  1  0  0  0  0  0  0  0  0  0
   15.5741   -2.6463   -8.3041 O   0  0  0  0  0  0  0  0  0  0  0  0
   15.1768   -4.6215   -7.0273 C   0  0  2  0  0  0  0  0  0  0  0  0
   13.9278   -5.0542   -6.5683 O   0  0  0  0  0  0  0  0  0  0  0  0
   16.2019   -5.1966   -6.0572 C   0  0  0  0  0  3  0  0  0  0  0  0
   15.5434   -6.0062   -4.9799 C   0  0  1  0  0  0  0  0  0  0  0  0
   15.7862   -7.3580   -5.0527 O   0  0  0  0  0  1  0  0  0  0  0  0
   15.9576   -5.4630   -3.6177 C   0  0  0  0  0  0  0  0  0  0  0  0
   17.3552   -5.5691   -3.5807 O   0  0  0  0  0  0  0  0  0  0  0  0
   17.8358   -4.4562   -2.9059 C   0  0  2  0  0  0  0  0  0  0  0  0
   18.9714   -4.7478   -2.1981 O   0  0  0  0  0  0  0  0  0  0  0  0
   16.7556   -3.8120   -2.1526 C   0  0  0  0  0  0  0  0  0  0  0  0
   16.6072   -2.6099   -1.9893 O   0  0  0  0  0  0  0  0  0  0  0  0
  1  2  1  0
  2  3  1  0
  3  4  1  0
  4  5  1  0
  5  6  1  6
  6  7  1  0
  5  8  1  0
  8  9  1  6
  8 10  1  0
 10 11  1  1
 10 12  1  0
 12 13  1  0
 13 14  1  1
 13 15  1  0
 15 16  1  0
 16 17  1  0
 17 18  1  1
 17 19  1  0
 19 20  2  0
M  CHG  1  14  -1
M  RAD  2   3   2  12   2
M  END
>  <docking_score>  (1) 
-3.3479999999999999

$$$$

     RDKit          3D

 20 19  0  0  0  0  0  0  0  0999 V2000
   13.2611   -5.4297   -6.4046 O   0  0  0  0  0  0  0  0  0  0  0  0
   14.1219   -4.5463   -5.7747 C   0  0  0  0  0  0  0  0  0  0  0  0
   15.2005   -5.2517   -4.9934 C   0  0  0  0  0  3  0  0  0  0  0  0
   16.4920   -4.6590   -5.2554 N   0  0  0  0  0  0  0  0  0  0  0  0
   17.1082   -4.3965   -3.9698 C   0  0  2  0  0  0  0  0  0  0  0  0
   17.5970   -5.6684   -3.3408 C   0  0  0  0  0  0  0  0  0  0  0  0
   18.6743   -6.2370   -4.0152 O   0  0  0  0  0  0  0  0  0  0  0  0
   16.2038   -3.5981   -3.0936 C   0  0  1  0  0  0  0  0  0  0  0  0
   16.5241   -3.9309   -1.7571 O   0  0  0  0  0  0  0  0  0  0  0  0
   16.3614   -2.0989   -3.2761 C   0  0  2  0  0  0  0  0  0  0  0  0
   16.6911   -1.4736   -2.0685 O   0  0  0  0  0  0  0  0  0  0  0  0
   15.0185   -1.5145   -3.6977 C   0  0  0  0  0  3  0  0  0  0  0  0
   14.9913   -1.2062   -5.1653 C   0  0  1  0  0  0  0  0  0  0  0  0
   14.1348   -0.1899   -5.5192 O   0  0  0  0  0  1  0  0  0  0  0  0
   16.4062   -0.9008   -5.6419 C   0  0  0  0  0  0  0  0  0  0  0  0
   16.6010   -1.7017   -6.7762 O   0  0  0  0  0  0  0  0  0  0  0  0
   17.9581   -1.9782   -6.8580 C   0  0  2  0  0  0  0  0  0  0  0  0
   18.7000   -1.0759   -6.1431 O   0  0  0  0  0  0  0  0  0  0  0  0
   18.3544   -2.1733   -8.2559 C   0  0  0  0  0  0  0  0  0  0  0  0
   19.4986   -2.2677   -8.6750 O   0  0  0  0  0  0  0  0  0  0  0  0
  1  2  1  0
  2  3  1  0
  3  4  1  0
  4  5  1  0
  5  6  1  1
  6  7  1  0
  5  8  1  0
  8  9  1  1
  8 10  1  0
 10 11  1  1
 10 12  1  0
 12 13  1  0
 13 14  1  1
 13 15  1  0
 15 16  1  0
 16 17  1  0
 17 18  1  6
 17 19  1  0
 19 20  2  0
M  CHG  1  14  -1
M  RAD  2   3   2  12   2
M  END
>  <docking_score>  (2) 
-3.3180000000000001

$$$$

     RDKit          3D

 20 19  0  0  0  0  0  0  0  0999 V2000
   18.2952   -2.5607   -2.3501 O   0  0  0  0  0  0  0  0  0  0  0  0
   17.9697   -3.5911   -3.2164 C   0  0  0  0  0  0  0  0  0  0  0  0
   19.0025   -3.7830   -4.2970 C   0  0  0  0  0  3  0  0  0  0  0  0
   18.4700   -4.5818   -5.3769 N   0  0  0  0  0  0  0  0  0  0  0  0
   18.0011   -5.8242   -4.7957 C   0  0  2  0  0  0  0  0  0  0  0  0
   19.0831   -6.8640   -4.8103 C   0  0  0  0  0  0  0  0  0  0  0  0
   19.2892   -7.4610   -3.5693 O   0  0  0  0  0  0  0  0  0  0  0  0
   16.7281   -6.2683   -5.4323 C   0  0  1  0  0  0  0  0  0  0  0  0
   16.8367   -7.6622   -5.6442 O   0  0  0  0  0  0  0  0  0  0  0  0
   15.5031   -5.9971   -4.5770 C   0  0  2  0  0  0  0  0  0  0  0  0
   14.5825   -7.0473   -4.6632 O   0  0  0  0  0  0  0  0  0  0  0  0
   14.7882   -4.7673   -5.1239 C   0  0  0  0  0  3  0  0  0  0  0  0
   14.9030   -4.6853   -6.6172 C   0  0  1  0  0  0  0  0  0  0  0  0
   13.8083   -5.1609   -7.3007 O   0  0  0  0  0  1  0  0  0  0  0  0
   15.1993   -3.2460   -7.0210 C   0  0  0  0  0  0  0  0  0  0  0  0
   14.7492   -2.4566   -5.9532 O   0  0  0  0  0  0  0  0  0  0  0  0
   15.3815   -1.2258   -6.0548 C   0  0  2  0  0  0  0  0  0  0  0  0
   16.6210   -1.2468   -5.4726 O   0  0  0  0  0  0  0  0  0  0  0  0
   14.4825   -0.1541   -5.6162 C   0  0  0  0  0  0  0  0  0  0  0  0
   13.4960   -0.2850   -4.9067 O   0  0  0  0  0  0  0  0  0  0  0  0
  1  2  1  0
  2  3  1  0
  3  4  1  0
  4  5  1  0
  5  6  1  6
  6  7  1  0
  5  8  1  0
  8  9  1  1
  8 10  1  0
 10 11  1  6
 10 12  1  0
 12 13  1  0
 13 14  1  6
 13 15  1  0
 15 16  1  0
 16 17  1  0
 17 18  1  1
 17 19  1  0
 19 20  2  0
M  CHG  1  14  -1
M  RAD  2   3   2  12   2
M  END
>  <docking_score>  (3) 
-3.214

$$$$
