
     RDKit          3D

 31 32  0  0  0  0  0  0  0  0999 V2000
   19.8838   -8.0259   -3.4540 C   0  0  0  0  0  0  0  0  0  0  0  0
   19.4431   -7.5298   -4.5927 C   0  0  0  0  0  0  0  0  0  0  0  0
   19.9034   -7.9355   -5.9437 C   0  0  0  0  0  0  0  0  0  0  0  0
   19.4323   -6.8034   -6.8687 C   0  0  2  0  0  0  0  0  0  0  0  0
   19.8271   -5.6122   -6.2122 O   0  0  0  0  0  0  0  0  0  0  0  0
   17.9112   -6.7366   -6.9096 C   0  0  1  0  0  0  0  0  0  0  0  0
   17.3871   -7.6972   -7.7686 O   0  0  0  0  0  0  0  0  0  0  0  0
   17.3009   -6.8498   -5.5189 C   0  0  1  0  0  0  0  0  0  0  0  0
   16.9631   -8.2075   -5.2923 O   0  0  0  0  0  0  0  0  0  0  0  0
   18.3972   -6.4727   -4.5391 C   0  0  1  0  0  0  0  0  0  0  0  0
   17.9015   -6.1957   -3.2328 N   0  0  0  0  0  0  0  0  0  0  0  0
   17.9455   -4.8165   -2.8273 C   0  0  0  0  0  3  0  0  0  0  0  0
   18.9169   -4.1331   -3.7853 C   0  0  0  0  0  0  0  0  0  0  0  0
   19.5147   -2.9012   -3.2195 C   0  0  1  0  0  0  0  0  0  0  0  0
   19.2321   -2.8549   -1.8581 O   0  0  0  0  0  0  0  0  0  0  0  0
   21.0333   -2.9692   -3.4496 C   0  0  0  0  0  0  0  0  0  0  0  0
   21.3819   -4.3031   -3.3417 O   0  0  0  0  0  0  0  0  0  0  0  0
   19.0555   -1.6095   -3.8615 C   0  0  1  0  0  0  0  0  0  0  0  0
   20.0983   -0.6990   -3.9860 O   0  0  0  0  0  0  0  0  0  0  0  0
   18.4612   -2.0032   -5.2008 C   0  0  2  0  0  0  0  0  0  0  0  0
   18.7111   -0.9499   -6.0768 O   0  0  0  0  0  0  0  0  0  0  0  0
   16.9754   -2.2340   -5.1184 C   0  0  1  0  0  0  0  0  0  0  0  0
   16.4739   -1.2255   -4.2592 O   0  0  0  0  0  0  0  0  0  0  0  0
   16.1949   -1.7195   -3.0777 O   0  0  0  0  0  0  0  0  0  0  0  0
   14.9535   -1.1942   -2.7038 C   0  0  0  0  0  3  0  0  0  0  0  0
   14.1928   -0.7520   -3.9457 C   0  0  0  0  0  0  0  0  0  0  0  0
   14.3251   -1.7600   -5.0649 C   0  0  0  0  0  0  0  0  0  0  0  0
   15.0209   -1.1866   -6.2772 C   0  0  1  0  0  0  0  0  0  0  0  0
   15.3972    0.1323   -5.9675 O   0  0  0  0  0  0  0  0  0  0  0  0
   16.3216   -1.9688   -6.4710 C   0  0  2  0  0  0  0  0  0  0  0  0
   15.9608   -3.2864   -7.1291 C   0  0  0  0  0  2  0  0  0  0  0  0
  1  2  2  0
  2  3  1  0
  3  4  1  0
  4  5  1  1
  4  6  1  0
  6  7  1  6
  6  8  1  0
  8  9  1  1
  8 10  1  0
 10 11  1  1
 11 12  1  0
 12 13  1  0
 13 14  1  0
 14 15  1  1
 14 16  1  0
 16 17  1  0
 14 18  1  0
 18 19  1  6
 18 20  1  0
 20 21  1  6
 20 22  1  0
 22 23  1  1
 23 24  1  0
 24 25  1  0
 25 26  1  0
 26 27  1  0
 27 28  1  0
 28 29  1  1
 28 30  1  0
 30 31  1  1
 10  2  1  0
 30 22  1  0
M  RAD  3  12   2  25   2  31   3
M  END
>  <docking_score>  (1) 
-4.117

$$$$

     RDKit          3D

 31 32  0  0  0  0  0  0  0  0999 V2000
    5.9130    8.0212    5.1536 C   0  0  0  0  0  0  0  0  0  0  0  0
    4.8394    7.2579    5.1941 C   0  0  0  0  0  0  0  0  0  0  0  0
    4.8286    5.7801    5.0614 C   0  0  0  0  0  0  0  0  0  0  0  0
    3.3669    5.4313    4.7431 C   0  0  2  0  0  0  0  0  0  0  0  0
    2.9967    6.3307    3.7136 O   0  0  0  0  0  0  0  0  0  0  0  0
    2.4593    5.7876    5.9131 C   0  0  1  0  0  0  0  0  0  0  0  0
    2.5076    4.8125    6.9041 O   0  0  0  0  0  0  0  0  0  0  0  0
    2.7783    7.1647    6.4796 C   0  0  1  0  0  0  0  0  0  0  0  0
    3.6659    6.9998    7.5722 O   0  0  0  0  0  0  0  0  0  0  0  0
    3.5185    7.9153    5.3873 C   0  0  1  0  0  0  0  0  0  0  0  0
    3.5841    9.3180    5.6257 N   0  0  0  0  0  0  0  0  0  0  0  0
    2.6158    9.8403    6.5520 C   0  0  0  0  0  3  0  0  0  0  0  0
    2.2593   11.2323    6.0386 C   0  0  0  0  0  0  0  0  0  0  0  0
    3.4402   12.1165    5.9010 C   0  0  1  0  0  0  0  0  0  0  0  0
    3.0605   13.4173    6.2163 O   0  0  0  0  0  0  0  0  0  0  0  0
    4.5145   11.6192    6.8819 C   0  0  0  0  0  0  0  0  0  0  0  0
    4.4650   12.4675    7.9730 O   0  0  0  0  0  0  0  0  0  0  0  0
    4.0921   12.1117    4.5348 C   0  0  1  0  0  0  0  0  0  0  0  0
    3.2243   11.6473    3.5534 O   0  0  0  0  0  0  0  0  0  0  0  0
    4.5426   13.5393    4.2879 C   0  0  2  0  0  0  0  0  0  0  0  0
    4.6058   13.7077    2.9069 O   0  0  0  0  0  0  0  0  0  0  0  0
    5.8980   13.8191    4.8812 C   0  0  1  0  0  0  0  0  0  0  0  0
    6.8203   13.7025    3.8123 O   0  0  0  0  0  0  0  0  0  0  0  0
    7.4809   12.5731    3.8909 O   0  0  0  0  0  0  0  0  0  0  0  0
    8.8236   12.8728    3.6382 C   0  0  0  0  0  3  0  0  0  0  0  0
    9.0785   14.3464    3.9215 C   0  0  0  0  0  0  0  0  0  0  0  0
    8.3891   14.7941    5.1906 C   0  0  0  0  0  0  0  0  0  0  0  0
    7.3472   15.8580    4.9354 C   0  0  1  0  0  0  0  0  0  0  0  0
    7.2918   16.0749    3.5472 O   0  0  0  0  0  0  0  0  0  0  0  0
    5.9897   15.2737    5.3320 C   0  0  2  0  0  0  0  0  0  0  0  0
    5.8931   15.3453    6.8436 C   0  0  0  0  0  2  0  0  0  0  0  0
  1  2  2  0
  2  3  1  0
  3  4  1  0
  4  5  1  6
  4  6  1  0
  6  7  1  1
  6  8  1  0
  8  9  1  1
  8 10  1  0
 10 11  1  1
 11 12  1  0
 12 13  1  0
 13 14  1  0
 14 15  1  1
 14 16  1  0
 16 17  1  0
 14 18  1  0
 18 19  1  6
 18 20  1  0
 20 21  1  6
 20 22  1  0
 22 23  1  6
 23 24  1  0
 24 25  1  0
 25 26  1  0
 26 27  1  0
 27 28  1  0
 28 29  1  6
 28 30  1  0
 30 31  1  1
 10  2  1  0
 30 22  1  0
M  RAD  3  12   2  25   2  31   3
M  END
>  <docking_score>  (2) 
-2.907

$$$$

     RDKit          3D

 31 32  0  0  0  0  0  0  0  0999 V2000
   18.1620   -9.1082   -6.2211 C   0  0  0  0  0  0  0  0  0  0  0  0
   18.8485   -8.0237   -5.9221 C   0  0  0  0  0  0  0  0  0  0  0  0
   20.3169   -7.9639   -5.7169 C   0  0  0  0  0  0  0  0  0  0  0  0
   20.5511   -6.6330   -4.9866 C   0  0  2  0  0  0  0  0  0  0  0  0
   19.5952   -6.6209   -3.9417 O   0  0  0  0  0  0  0  0  0  0  0  0
   20.1695   -5.4554   -5.8738 C   0  0  1  0  0  0  0  0  0  0  0  0
   21.1769   -5.1655   -6.7883 O   0  0  0  0  0  0  0  0  0  0  0  0
   18.8373   -5.6824   -6.5758 C   0  0  1  0  0  0  0  0  0  0  0  0
   19.0995   -6.2153   -7.8627 O   0  0  0  0  0  0  0  0  0  0  0  0
   18.1061   -6.7428   -5.7725 C   0  0  1  0  0  0  0  0  0  0  0  0
   16.7199   -6.8210   -6.0905 N   0  0  0  0  0  0  0  0  0  0  0  0
   15.8750   -5.8529   -5.4443 C   0  0  0  0  0  3  0  0  0  0  0  0
   16.7984   -4.7156   -5.0175 C   0  0  0  0  0  0  0  0  0  0  0  0
   16.2399   -3.3761   -5.3159 C   0  0  1  0  0  0  0  0  0  0  0  0
   14.9521   -3.5333   -5.8181 O   0  0  0  0  0  0  0  0  0  0  0  0
   16.2091   -2.5782   -4.0021 C   0  0  0  0  0  0  0  0  0  0  0  0
   16.5394   -3.4712   -2.9990 O   0  0  0  0  0  0  0  0  0  0  0  0
   17.0487   -2.5435   -6.2876 C   0  0  1  0  0  0  0  0  0  0  0  0
   16.2647   -2.0670   -7.3317 O   0  0  0  0  0  0  0  0  0  0  0  0
   17.6634   -1.4283   -5.4628 C   0  0  2  0  0  0  0  0  0  0  0  0
   16.6680   -0.4728   -5.2735 O   0  0  0  0  0  0  0  0  0  0  0  0
   18.8364   -0.7875   -6.1563 C   0  0  1  0  0  0  0  0  0  0  0  0
   19.3434    0.1756   -5.2497 O   0  0  0  0  0  0  0  0  0  0  0  0
   18.9987    1.3855   -5.6176 O   0  0  0  0  0  0  0  0  0  0  0  0
   20.1362    2.1881   -5.4811 C   0  0  0  0  0  3  0  0  0  0  0  0
   21.3825    1.3150   -5.5149 C   0  0  0  0  0  0  0  0  0  0  0  0
   21.2843    0.2501   -6.5838 C   0  0  0  0  0  0  0  0  0  0  0  0
   21.3081   -1.1469   -6.0089 C   0  0  1  0  0  0  0  0  0  0  0  0
   21.3576   -1.0298   -4.6086 O   0  0  0  0  0  0  0  0  0  0  0  0
   19.9635   -1.7997   -6.3367 C   0  0  2  0  0  0  0  0  0  0  0  0
   20.0206   -2.2452   -7.7851 C   0  0  0  0  0  2  0  0  0  0  0  0
  1  2  2  0
  2  3  1  0
  3  4  1  0
  4  5  1  1
  4  6  1  0
  6  7  1  6
  6  8  1  0
  8  9  1  6
  8 10  1  0
 10 11  1  6
 11 12  1  0
 12 13  1  0
 13 14  1  0
 14 15  1  6
 14 16  1  0
 16 17  1  0
 14 18  1  0
 18 19  1  6
 18 20  1  0
 20 21  1  6
 20 22  1  0
 22 23  1  1
 23 24  1  0
 24 25  1  0
 25 26  1  0
 26 27  1  0
 27 28  1  0
 28 29  1  1
 28 30  1  0
 30 31  1  6
 10  2  1  0
 30 22  1  0
M  RAD  3  12   2  25   2  31   3
M  END
>  <docking_score>  (3) 
-2.1680000000000001

$$$$
