
     RDKit          3D

 35 35  0  0  0  0  0  0  0  0999 V2000
   19.8604   -0.0209   -2.7253 C   0  0  0  0  0  0  0  0  0  0  0  0
   20.2955    0.2665   -4.1398 C   0  0  2  0  0  0  0  0  0  0  0  0
   20.6348    1.7244   -4.2928 C   0  0  0  0  0  0  0  0  0  0  0  0
   19.1555   -0.1513   -5.0596 C   0  0  0  0  0  0  0  0  0  0  0  0
   18.4805    1.0825   -5.5946 C   0  0  0  0  0  0  0  0  0  0  0  0
   16.9979    0.9335   -5.7298 C   0  0  0  0  0  0  0  0  0  0  0  0
   16.5581   -0.4617   -6.0578 C   0  0  1  0  0  0  0  0  0  0  0  0
   15.0613   -0.5454   -5.9119 C   0  0  0  0  0  0  0  0  0  0  0  0
   16.8958   -0.8528   -7.4828 C   0  0  0  0  0  0  0  0  0  0  0  0
   17.4729   -2.2257   -7.5872 C   0  0  0  0  0  0  0  0  0  0  0  0
   16.7312   -3.1164   -8.5561 C   0  0  0  0  0  0  0  0  0  0  0  0
   16.9886   -4.5674   -8.1585 C   0  0  2  0  0  0  0  0  0  0  0  0
   16.0655   -4.8812   -7.0066 C   0  0  0  0  0  0  0  0  0  0  0  0
   18.4172   -4.6914   -7.7051 C   0  0  0  0  0  0  0  0  0  0  0  0
   18.4596   -5.2245   -6.2794 C   0  0  0  0  0  0  0  0  0  0  0  0
   19.6937   -6.0665   -6.1557 C   0  0  2  0  0  0  0  0  0  0  0  0
   19.6245   -7.2267   -7.1048 C   0  0  0  0  0  3  0  0  0  0  0  0
   18.2038   -7.7822   -7.0326 C   0  0  0  0  0  0  0  0  0  0  0  0
   18.1413   -8.5901   -5.7411 C   0  0  2  0  0  0  0  0  0  0  0  0
   18.9334   -9.7456   -5.8653 O   0  0  0  0  0  0  0  0  0  0  0  0
   16.7117   -9.0682   -5.6053 C   0  0  0  0  0  3  0  0  0  0  0  0
   15.9596   -8.2158   -4.6045 C   0  0  0  0  0  3  0  0  0  0  0  0
   15.0908   -7.2130   -5.3268 C   0  0  0  0  0  3  0  0  0  0  0  0
   14.2449   -6.6253   -4.4001 O   0  0  0  0  0  0  0  0  0  0  0  0
   19.9890   -6.4648   -4.7406 C   0  0  2  0  0  0  0  0  0  0  0  0
   18.8630   -6.5392   -3.9374 O   0  0  0  0  0  0  0  0  0  0  0  0
   21.0643   -5.6050   -4.1185 C   0  0  1  0  0  0  0  0  0  0  0  0
   21.3825   -4.5028   -5.1139 C   0  0  0  0  0  2  0  0  0  0  0  0
   20.6022   -4.9642   -2.8311 C   0  0  0  0  0  0  0  0  0  0  0  0
   19.5393   -3.4899   -3.1765 P   0  0  0  0  0  0  0  0  0  0  0  0
   19.6673   -2.2705   -1.8066 C   0  0  2  0  0  0  0  0  0  0  0  0
   20.6476   -1.1785   -2.1493 C   0  0  2  0  0  0  0  0  0  0  0  0
   21.3809   -0.8020   -0.8876 C   0  0  0  0  0  2  0  0  0  0  0  0
   19.9811   -2.8850   -0.5031 C   0  0  0  0  0  0  0  0  0  0  0  0
   21.0308   -2.6323    0.0851 O   0  0  0  0  0  0  0  0  0  0  0  0
  1  2  1  0
  2  3  1  1
  2  4  1  0
  4  5  1  0
  5  6  1  0
  6  7  1  0
  7  8  1  6
  7  9  1  0
  9 10  1  0
 10 11  1  0
 11 12  1  0
 12 13  1  1
 12 14  1  0
 14 15  1  0
 15 16  1  0
 16 17  1  6
 17 18  1  0
 18 19  1  0
 19 20  1  6
 19 21  1  0
 21 22  1  0
 22 23  1  0
 23 24  1  0
 16 25  1  0
 25 26  1  1
 25 27  1  0
 27 28  1  6
 27 29  1  0
 29 30  1  0
 30 31  1  0
 31 32  1  0
 32 33  1  1
 31 34  1  1
 34 35  2  0
 32  1  1  0
M  RAD  6  17   2  21   2  22   2  23   2  28   3  33   3
M  END
>  <docking_score>  (1) 
3.319

$$$$

     RDKit          3D

 35 35  0  0  0  0  0  0  0  0999 V2000
   20.7545   -4.0754   -2.9850 C   0  0  0  0  0  0  0  0  0  0  0  0
   19.9706   -5.3172   -3.3257 C   0  0  2  0  0  0  0  0  0  0  0  0
   20.8184   -6.5417   -3.1120 C   0  0  0  0  0  0  0  0  0  0  0  0
   19.5174   -5.1853   -4.7739 C   0  0  0  0  0  0  0  0  0  0  0  0
   20.3286   -6.1215   -5.6282 C   0  0  0  0  0  0  0  0  0  0  0  0
   20.6558   -5.5586   -6.9753 C   0  0  0  0  0  0  0  0  0  0  0  0
   19.6024   -4.6409   -7.5191 C   0  0  1  0  0  0  0  0  0  0  0  0
   20.1492   -3.9421   -8.7362 C   0  0  0  0  0  0  0  0  0  0  0  0
   18.3542   -5.3861   -7.9483 C   0  0  0  0  0  0  0  0  0  0  0  0
   17.0962   -4.7177   -7.5019 C   0  0  0  0  0  0  0  0  0  0  0  0
   16.1324   -4.4371   -8.6310 C   0  0  0  0  0  0  0  0  0  0  0  0
   15.2274   -3.2837   -8.2062 C   0  0  2  0  0  0  0  0  0  0  0  0
   16.0059   -2.0086   -8.4192 C   0  0  0  0  0  0  0  0  0  0  0  0
   14.9102   -3.4398   -6.7445 C   0  0  0  0  0  0  0  0  0  0  0  0
   15.3566   -2.1973   -5.9859 C   0  0  0  0  0  0  0  0  0  0  0  0
   14.3904   -1.9934   -4.8580 C   0  0  2  0  0  0  0  0  0  0  0  0
   13.0092   -1.7619   -5.3966 C   0  0  0  0  0  3  0  0  0  0  0  0
   12.0460   -1.8460   -4.2145 C   0  0  0  0  0  0  0  0  0  0  0  0
   11.0795   -0.6793   -4.3855 C   0  0  2  0  0  0  0  0  0  0  0  0
   11.0530    0.0914   -3.2093 O   0  0  0  0  0  0  0  0  0  0  0  0
    9.6996   -1.2851   -4.5270 C   0  0  0  0  0  3  0  0  0  0  0  0
    8.6686   -0.2045   -4.7782 C   0  0  0  0  0  3  0  0  0  0  0  0
    7.3732   -0.8232   -5.2486 C   0  0  0  0  0  3  0  0  0  0  0  0
    6.9156   -1.6769   -4.2578 O   0  0  0  0  0  0  0  0  0  0  0  0
   14.8403   -0.9433   -3.8868 C   0  0  2  0  0  0  0  0  0  0  0  0
   15.6556    0.0236   -4.4516 O   0  0  0  0  0  0  0  0  0  0  0  0
   15.4594   -1.5419   -2.6455 C   0  0  1  0  0  0  0  0  0  0  0  0
   15.5560   -3.0401   -2.8759 C   0  0  0  0  0  2  0  0  0  0  0  0
   16.8501   -1.0090   -2.3933 C   0  0  0  0  0  0  0  0  0  0  0  0
   18.0832   -1.8498   -3.4866 P   0  0  0  0  0  0  0  0  0  0  0  0
   19.7372   -1.8808   -2.6843 C   0  0  2  0  0  0  0  0  0  0  0  0
   19.9840   -3.2073   -2.0133 C   0  0  2  0  0  0  0  0  0  0  0  0
   20.7520   -2.9477   -0.7429 C   0  0  0  0  0  2  0  0  0  0  0  0
   19.9575   -0.7582   -1.7534 C   0  0  0  0  0  0  0  0  0  0  0  0
   20.7116    0.1696   -2.0402 O   0  0  0  0  0  0  0  0  0  0  0  0
  1  2  1  0
  2  3  1  6
  2  4  1  0
  4  5  1  0
  5  6  1  0
  6  7  1  0
  7  8  1  6
  7  9  1  0
  9 10  1  0
 10 11  1  0
 11 12  1  0
 12 13  1  1
 12 14  1  0
 14 15  1  0
 15 16  1  0
 16 17  1  6
 17 18  1  0
 18 19  1  0
 19 20  1  1
 19 21  1  0
 21 22  1  0
 22 23  1  0
 23 24  1  0
 16 25  1  0
 25 26  1  6
 25 27  1  0
 27 28  1  6
 27 29  1  0
 29 30  1  0
 30 31  1  0
 31 32  1  0
 32 33  1  1
 31 34  1  1
 34 35  2  0
 32  1  1  0
M  RAD  6  17   2  21   2  22   2  23   2  28   3  33   3
M  END
>  <docking_score>  (2) 
3.7149999999999999

$$$$
