
     RDKit          3D

 51 52  0  0  0  0  0  0  0  0999 V2000
    5.0894   12.9100    8.0484 C   0  0  0  0  0  0  0  0  0  0  0  0
    3.8764   12.1973    7.8666 O   0  0  0  0  0  0  0  0  0  0  0  0
    3.9976   10.8864    8.3157 C   0  0  0  0  0  3  0  0  0  0  0  0
    4.9432   10.1779    7.6070 O   0  0  0  0  0  0  0  0  0  0  0  0
    4.4311    9.6684    6.4021 C   0  0  2  0  0  0  0  0  0  0  0  0
    3.5628   10.7656    5.7742 C   0  0  0  0  0  0  0  0  0  0  0  0
    3.5714    8.4425    6.6664 C   0  0  0  0  0  3  0  0  0  0  0  0
    3.4263    7.5953    5.4185 C   0  0  1  0  0  0  0  0  0  0  0  0
    2.4683    6.5167    5.7372 N   0  0  0  0  0  0  0  0  0  0  0  0
    3.1792    5.5080    6.4989 C   0  0  0  0  0  3  0  0  0  0  0  0
    4.0676    4.6784    5.5746 C   0  0  2  0  0  0  0  0  0  0  0  0
    5.2419    5.3611    4.9450 C   0  0  0  0  0  0  0  0  0  0  0  0
    4.0472    5.1956    4.2420 O   0  0  0  0  0  0  0  0  0  0  0  0
    2.8740    8.2835    4.3565 O   0  0  0  0  0  0  0  0  0  0  0  0
    3.7821    8.9665    3.5851 C   0  0  0  0  0  0  0  0  0  0  0  0
    4.2964    8.2258    2.3959 C   0  0  0  0  0  0  0  0  0  0  0  0
    4.5678    9.1297    1.3848 O   0  0  0  0  0  0  0  0  0  0  0  0
    3.4776   10.0072    1.3110 C   0  0  2  0  0  0  0  0  0  0  0  0
    2.6491    9.6349    0.1127 C   0  0  0  0  0  0  0  0  0  0  0  0
    3.8667   11.3417    1.3192 O   0  0  0  0  0  0  0  0  0  0  0  0
    5.1562   11.4998    0.8533 C   0  0  0  0  0  3  0  0  0  0  0  0
    5.9297   12.5389    1.6544 C   0  0  0  0  0  0  0  0  0  0  0  0
    5.7206   12.3867    3.1306 C   0  0  0  0  0  3  0  0  0  0  0  0
    4.7053   13.2762    3.6563 C   0  0  0  0  0  0  0  0  0  0  0  0
    4.6277   13.9841    4.7320 C   0  0  0  0  0  0  0  0  0  0  0  0
    5.7132   14.0287    5.7818 C   0  0  0  0  0  3  0  0  0  0  0  0
    6.3512   12.6558    5.9183 C   0  0  0  0  0  0  0  0  0  0  0  0
    6.2244   12.1653    7.3698 C   0  0  1  0  0  0  0  0  0  0  0  0
    7.5593   12.3810    8.0824 C   0  0  0  0  0  0  0  0  0  0  0  0
    8.4543   12.6944    7.0661 O   0  0  0  0  0  0  0  0  0  0  0  0
    8.5168   14.1086    6.9761 C   0  0  0  0  0  0  0  0  0  0  0  0
    8.4635   14.4672    5.5009 C   0  0  2  0  0  0  0  0  0  0  0  0
    7.7642   15.8271    5.4148 C   0  0  0  0  0  0  0  0  0  0  0  0
    7.5759   13.4370    4.7796 C   0  0  0  0  0  0  0  0  0  0  0  0
    8.4349   12.5358    4.1092 O   0  0  0  0  0  0  0  0  0  0  0  0
    9.1632   13.2122    3.1465 C   0  0  2  0  0  0  0  0  0  0  0  0
    9.0672   12.6038    1.7989 C   0  0  0  0  0  0  0  0  0  0  0  0
   10.5246   13.5779    3.6095 C   0  0  0  0  0  3  0  0  0  0  0  0
   10.6480   14.9733    3.5110 O   0  0  0  0  0  0  0  0  0  0  0  0
   10.9902   15.4429    4.6731 O   0  0  0  0  0  0  0  0  0  0  0  0
   11.8660   14.6313    5.2152 O   0  0  0  0  0  0  0  0  0  0  0  0
   11.5360   14.2477    6.4883 C   0  0  2  0  0  0  0  0  0  0  0  0
   10.8985   12.8986    6.4227 C   0  0  0  0  0  0  0  0  0  0  0  0
   10.7124   15.2988    7.1653 C   0  0  0  0  0  0  0  0  0  0  0  0
   10.8444   15.2788    8.6791 C   0  0  0  0  0  0  0  0  0  0  0  0
   11.6486   14.1852    9.0650 O   0  0  0  0  0  0  0  0  0  0  0  0
   10.9026   13.0192    9.1655 C   0  0  0  0  0  3  0  0  0  0  0  0
   11.5027   12.1553   10.0752 O   0  0  0  0  0  0  0  0  0  0  0  0
   11.1048   12.4274   11.3994 C   0  0  0  0  0  0  0  0  0  0  0  0
    9.6294   12.0952   11.4876 C   0  0  0  0  0  3  0  0  0  0  0  0
    8.8353   13.3939   11.6769 C   0  0  0  0  0  2  0  0  0  0  0  0
  1  2  1  0
  2  3  1  0
  3  4  1  0
  4  5  1  0
  5  6  1  1
  5  7  1  0
  7  8  1  0
  8  9  1  1
  9 10  1  0
 11 10  1  1
 11 12  1  0
 11 13  1  0
  8 14  1  0
 14 15  1  0
 15 16  1  0
 16 17  1  0
 17 18  1  0
 18 19  1  6
 18 20  1  0
 20 21  1  0
 21 22  1  0
 22 23  1  0
 23 24  1  0
 24 25  2  3
 25 26  1  0
 26 27  1  0
 27 28  1  0
 28 29  1  1
 29 30  1  0
 30 31  1  0
 31 32  1  0
 32 33  1  1
 32 34  1  0
 34 35  1  0
 35 36  1  0
 36 37  1  6
 36 38  1  0
 38 39  1  0
 39 40  1  0
 40 41  1  0
 41 42  1  0
 42 43  1  6
 42 44  1  0
 44 45  1  0
 45 46  1  0
 46 47  1  0
 47 48  1  0
 48 49  1  0
 49 50  1  0
 50 51  1  0
 28  1  1  0
 13 12  1  0
M  RAD  8   3   2   7   2  10   2  21   2  23   2  26   2  38   2  47   2
M  RAD  2  50   2  51   3
M  END
>  <docking_score>  (1) 
25.611999999999998

$$$$
