
     RDKit          3D

 26 28  0  0  0  0  0  0  0  0999 V2000
   20.1545   -2.8091   -1.4636 O   0  0  0  0  0  0  0  0  0  0  0  0
   19.1150   -3.3126   -1.9728 C   0  0  0  0  0  0  0  0  0  0  0  0
   18.1237   -2.3975   -2.4340 N   0  0  0  0  0  0  0  0  0  0  0  0
   16.7377   -2.7004   -2.5165 C   0  0  0  0  0  0  0  0  0  0  0  0
   15.9763   -1.9043   -3.5071 C   0  0  0  0  0  0  0  0  0  0  0  0
   14.9051   -1.1111   -3.0536 C   0  0  0  0  0  0  0  0  0  0  0  0
   14.1283   -0.3595   -3.9045 C   0  0  0  0  0  0  0  0  0  0  0  0
   14.3842   -0.3625   -5.2598 C   0  0  0  0  0  0  0  0  0  0  0  0
   13.4356    0.5693   -6.3976 Cl  0  0  0  0  0  0  0  0  0  0  0  0
   15.4208   -1.1229   -5.7420 C   0  0  0  0  0  0  0  0  0  0  0  0
   16.2102   -1.8884   -4.8623 C   0  0  0  0  0  0  0  0  0  0  0  0
   18.9809   -4.7434   -2.0616 C   0  0  0  0  0  0  0  0  0  0  0  0
   18.7490   -5.4399   -3.1777 C   0  0  0  0  0  0  0  0  0  0  0  0
   18.6033   -4.8382   -4.4477 N   0  0  0  0  0  0  0  0  0  0  0  0
   19.4801   -3.7208   -4.8594 C   0  0  0  0  0  0  0  0  0  0  0  0
   18.5610   -2.5631   -5.1560 C   0  0  0  0  0  0  0  0  0  0  0  0
   17.2866   -2.6421   -5.5244 C   0  0  0  0  0  0  0  0  0  0  0  0
   16.7514   -3.4848   -6.6541 C   0  0  0  0  0  0  0  0  0  0  0  0
   16.8923   -4.9352   -6.2585 C   0  0  0  0  0  0  0  0  0  0  0  0
   17.5542   -5.4373   -5.1964 C   0  0  0  0  0  0  0  0  0  0  0  0
   17.1658   -6.7895   -4.7187 C   0  0  1  0  0  0  0  0  0  0  0  0
   15.3705   -6.8524   -4.6905 Cl  0  0  0  0  0  0  0  0  0  0  0  0
   17.5504   -7.6841   -5.7431 O   0  0  0  0  0  0  0  0  0  0  0  0
   18.8049   -7.4250   -6.2275 C   0  0  0  0  0  0  0  0  0  0  0  0
   19.8111   -8.5091   -5.9528 C   0  0  0  0  0  0  0  0  0  0  0  0
   20.2180   -8.4342   -4.2185 Cl  0  0  0  0  0  0  0  0  0  0  0  0
  1  2  2  0
  2  3  1  0
  3  4  1  0
  4  5  1  0
  5  6  2  0
  6  7  1  0
  7  8  2  0
  8  9  1  0
  8 10  1  0
 10 11  2  0
  2 12  1  0
 12 13  2  3
 13 14  1  0
 14 15  1  0
 15 16  1  0
 16 17  2  0
 17 18  1  0
 18 19  1  0
 19 20  2  0
 20 21  1  0
 21 22  1  6
 21 23  1  0
 23 24  1  0
 24 25  1  0
 25 26  1  0
 11  5  1  0
 17 11  1  0
 20 14  1  0
M  END
>  <docking_score>  (1) 
-4.3540000000000001

$$$$

     RDKit          3D

 26 28  0  0  0  0  0  0  0  0999 V2000
   13.7851   -1.4236   -4.5814 O   0  0  0  0  0  0  0  0  0  0  0  0
   14.9314   -1.7817   -4.9699 C   0  0  0  0  0  0  0  0  0  0  0  0
   15.9732   -1.7494   -3.9969 N   0  0  0  0  0  0  0  0  0  0  0  0
   17.3485   -1.5747   -4.3088 C   0  0  0  0  0  0  0  0  0  0  0  0
   18.2960   -2.1236   -3.3110 C   0  0  0  0  0  0  0  0  0  0  0  0
   19.2029   -1.2446   -2.6887 C   0  0  0  0  0  0  0  0  0  0  0  0
   20.1338   -1.6700   -1.7696 C   0  0  0  0  0  0  0  0  0  0  0  0
   20.2059   -3.0033   -1.4235 C   0  0  0  0  0  0  0  0  0  0  0  0
   21.3655   -3.6117   -0.2627 Cl  0  0  0  0  0  0  0  0  0  0  0  0
   19.3382   -3.8926   -2.0078 C   0  0  0  0  0  0  0  0  0  0  0  0
   18.3887   -3.4467   -2.9473 C   0  0  0  0  0  0  0  0  0  0  0  0
   15.1296   -2.1933   -6.3354 C   0  0  0  0  0  0  0  0  0  0  0  0
   15.6416   -3.3608   -6.7345 C   0  0  0  0  0  0  0  0  0  0  0  0
   16.0635   -4.3667   -5.8365 N   0  0  0  0  0  0  0  0  0  0  0  0
   15.2728   -4.6797   -4.6267 C   0  0  0  0  0  0  0  0  0  0  0  0
   16.1974   -4.4491   -3.4585 C   0  0  0  0  0  0  0  0  0  0  0  0
   17.5247   -4.5127   -3.4786 C   0  0  0  0  0  0  0  0  0  0  0  0
   18.3391   -5.6579   -4.0244 C   0  0  0  0  0  0  0  0  0  0  0  0
   18.1564   -5.6849   -5.5230 C   0  0  0  0  0  0  0  0  0  0  0  0
   17.2790   -4.9714   -6.2573 C   0  0  0  0  0  0  0  0  0  0  0  0
   17.5876   -4.7712   -7.6969 C   0  0  1  0  0  0  0  0  0  0  0  0
   18.0338   -3.0445   -7.9140 Cl  0  0  0  0  0  0  0  0  0  0  0  0
   18.7783   -5.4933   -7.9386 O   0  0  0  0  0  0  0  0  0  0  0  0
   19.9037   -4.7405   -7.7335 C   0  0  0  0  0  0  0  0  0  0  0  0
   21.1907   -5.4494   -8.0569 C   0  0  0  0  0  0  0  0  0  0  0  0
   20.9699   -7.1710   -7.6493 Cl  0  0  0  0  0  0  0  0  0  0  0  0
  1  2  2  0
  2  3  1  0
  3  4  1  0
  4  5  1  0
  5  6  2  0
  6  7  1  0
  7  8  2  0
  8  9  1  0
  8 10  1  0
 10 11  2  0
  2 12  1  0
 12 13  2  3
 13 14  1  0
 14 15  1  0
 15 16  1  0
 16 17  2  0
 17 18  1  0
 18 19  1  0
 19 20  2  0
 20 21  1  0
 21 22  1  1
 21 23  1  0
 23 24  1  0
 24 25  1  0
 25 26  1  0
 11  5  1  0
 17 11  1  0
 20 14  1  0
M  END
>  <docking_score>  (2) 
-3.976

$$$$

     RDKit          3D

 26 28  0  0  0  0  0  0  0  0999 V2000
   17.6138   -7.5674   -5.5772 O   0  0  0  0  0  0  0  0  0  0  0  0
   18.0390   -6.4009   -5.3496 C   0  0  0  0  0  0  0  0  0  0  0  0
   17.1032   -5.3379   -5.5148 N   0  0  0  0  0  0  0  0  0  0  0  0
   17.4643   -4.0035   -5.8440 C   0  0  0  0  0  0  0  0  0  0  0  0
   16.4954   -2.9656   -5.4214 C   0  0  0  0  0  0  0  0  0  0  0  0
   15.9127   -2.1467   -6.4074 C   0  0  0  0  0  0  0  0  0  0  0  0
   15.0229   -1.1423   -6.1045 C   0  0  0  0  0  0  0  0  0  0  0  0
   14.6682   -0.9039   -4.7931 C   0  0  0  0  0  0  0  0  0  0  0  0
   13.5433    0.3570   -4.3379 Cl  0  0  0  0  0  0  0  0  0  0  0  0
   15.2143   -1.6813   -3.8018 C   0  0  0  0  0  0  0  0  0  0  0  0
   16.1239   -2.7073   -4.1226 C   0  0  0  0  0  0  0  0  0  0  0  0
   19.4069   -6.2021   -4.9468 C   0  0  0  0  0  0  0  0  0  0  0  0
   19.8136   -5.5715   -3.8416 C   0  0  0  0  0  0  0  0  0  0  0  0
   18.9224   -5.0053   -2.9029 N   0  0  0  0  0  0  0  0  0  0  0  0
   17.6831   -5.7131   -2.5154 C   0  0  0  0  0  0  0  0  0  0  0  0
   16.5498   -4.7829   -2.8664 C   0  0  0  0  0  0  0  0  0  0  0  0
   16.6156   -3.4587   -2.9570 C   0  0  0  0  0  0  0  0  0  0  0  0
   17.1796   -2.5353   -1.9073 C   0  0  0  0  0  0  0  0  0  0  0  0
   18.6707   -2.7639   -1.8405 C   0  0  0  0  0  0  0  0  0  0  0  0
   19.3801   -3.7426   -2.4381 C   0  0  0  0  0  0  0  0  0  0  0  0
   20.8312   -3.5079   -2.6546 C   0  0  1  0  0  0  0  0  0  0  0  0
   21.1791   -3.8612   -4.3815 Cl  0  0  0  0  0  0  0  0  0  0  0  0
   21.0196   -2.1139   -2.5178 O   0  0  0  0  0  0  0  0  0  0  0  0
   20.6009   -1.4136   -3.6177 C   0  0  0  0  0  0  0  0  0  0  0  0
   20.3446    0.0466   -3.3618 C   0  0  0  0  0  0  0  0  0  0  0  0
   21.3504    0.9745   -4.5047 Cl  0  0  0  0  0  0  0  0  0  0  0  0
  1  2  2  0
  2  3  1  0
  3  4  1  0
  4  5  1  0
  5  6  2  0
  6  7  1  0
  7  8  2  0
  8  9  1  0
  8 10  1  0
 10 11  2  0
  2 12  1  0
 12 13  2  3
 13 14  1  0
 14 15  1  0
 15 16  1  0
 16 17  2  0
 17 18  1  0
 18 19  1  0
 19 20  2  0
 20 21  1  0
 21 22  1  6
 21 23  1  0
 23 24  1  0
 24 25  1  0
 25 26  1  0
 11  5  1  0
 17 11  1  0
 20 14  1  0
M  END
>  <docking_score>  (3) 
-3.859

$$$$
