
     RDKit          3D

 30 29  0  0  0  0  0  0  0  0999 V2000
   13.3618   -1.5487   -4.6426 C   0  0  0  0  0  0  0  0  0  0  0  0
   14.6675   -2.2415   -4.9745 C   0  0  0  0  0  0  0  0  0  0  0  0
   15.3030   -2.7844   -3.7197 C   0  0  0  0  0  0  0  0  0  0  0  0
   15.6156   -1.2535   -5.6661 C   0  0  0  0  0  0  0  0  0  0  0  0
   15.8591   -0.0638   -4.7752 C   0  0  0  0  0  0  0  0  0  0  0  0
   17.1245   -0.2462   -3.9954 C   0  0  0  0  0  0  0  0  0  0  0  0
   18.2076   -0.6885   -4.9546 C   0  0  1  0  0  0  0  0  0  0  0  0
   18.3565    0.2749   -6.1142 C   0  0  0  0  0  0  0  0  0  0  0  0
   19.5300   -0.8915   -4.2534 C   0  0  2  0  0  0  0  0  0  0  0  0
   20.4317   -1.6290   -4.9988 O   0  0  0  0  0  0  0  0  0  0  0  0
   19.2388   -1.5274   -2.9110 C   0  0  0  0  0  3  0  0  0  0  0  0
   20.1506   -0.9194   -1.8840 C   0  0  0  0  0  0  0  0  0  0  0  0
   19.4325   -3.0216   -3.0577 C   0  0  0  0  0  0  0  0  0  0  0  0
   18.1350   -3.6778   -2.6336 C   0  0  2  0  0  0  0  0  0  0  0  0
   18.1634   -3.9033   -1.1448 C   0  0  0  0  0  2  0  0  0  0  0  0
   18.0402   -4.9999   -3.3667 C   0  0  0  0  0  0  0  0  0  0  0  0
   18.8525   -6.0029   -2.5363 C   0  0  0  0  0  0  0  0  0  0  0  0
   19.7942   -6.6762   -3.5438 C   0  0  0  0  0  0  0  0  0  0  0  0
   18.8693   -7.2801   -4.6085 C   0  0  0  0  0  0  0  0  0  0  0  0
   19.5934   -7.0737   -5.9379 C   0  0  0  0  0  0  0  0  0  0  0  0
   20.4697   -5.8584   -5.9151 C   0  0  0  0  0  0  0  0  0  0  0  0
   19.8241   -4.7752   -6.7698 C   0  0  0  0  0  0  0  0  0  0  0  0
   18.7117   -5.4187   -7.5888 C   0  0  0  0  0  0  0  0  0  0  0  0
   17.6396   -4.3955   -7.7741 C   0  0  2  0  0  0  0  0  0  0  0  0
   18.1056   -2.9827   -7.6334 C   0  0  0  0  0  0  0  0  0  0  0  0
   16.3659   -4.6987   -7.0473 C   0  0  2  0  0  0  0  0  0  0  0  0
   16.6415   -5.1140   -5.6334 C   0  0  0  0  0  0  0  0  0  0  0  0
   15.6086   -5.7475   -7.8344 C   0  0  0  0  0  3  0  0  0  0  0  0
   14.6117   -5.0753   -8.7391 C   0  0  0  0  0  2  0  0  0  0  0  0
   16.7192   -6.8464   -8.7366 S   0  0  0  0  0  0  0  0  0  0  0  0
  1  2  1  0
  2  3  1  0
  2  4  1  0
  4  5  1  0
  5  6  1  0
  6  7  1  0
  7  8  1  6
  7  9  1  0
  9 10  1  6
  9 11  1  0
 11 12  1  0
 11 13  1  0
 13 14  1  0
 14 15  1  1
 14 16  1  0
 16 17  1  0
 17 18  1  0
 18 19  1  0
 19 20  1  0
 20 21  1  0
 21 22  1  0
 22 23  1  0
 23 24  1  0
 24 25  1  1
 24 26  1  0
 26 27  1  1
 26 28  1  0
 28 29  1  0
 28 30  1  0
M  RAD  4  11   2  15   3  28   2  29   3
M  END
>  <docking_score>  (1) 
0.26500000000000001

$$$$

     RDKit          3D

 30 29  0  0  0  0  0  0  0  0999 V2000
    6.7490   10.6349    0.2793 C   0  0  0  0  0  0  0  0  0  0  0  0
    6.2314   10.2240    1.6425 C   0  0  0  0  0  0  0  0  0  0  0  0
    4.8240    9.6956    1.5279 C   0  0  0  0  0  0  0  0  0  0  0  0
    6.2722   11.4260    2.5947 C   0  0  0  0  0  0  0  0  0  0  0  0
    7.5639   12.1799    2.4176 C   0  0  0  0  0  0  0  0  0  0  0  0
    7.2907   13.6292    2.1575 C   0  0  0  0  0  0  0  0  0  0  0  0
    6.0566   14.0221    2.9394 C   0  0  1  0  0  0  0  0  0  0  0  0
    5.4082   12.8239    3.6020 C   0  0  0  0  0  0  0  0  0  0  0  0
    6.3548   15.0998    3.9550 C   0  0  2  0  0  0  0  0  0  0  0  0
    7.7027   15.3921    4.0559 O   0  0  0  0  0  0  0  0  0  0  0  0
    5.7631   14.6551    5.2753 C   0  0  0  0  0  3  0  0  0  0  0  0
    4.2699   14.8022    5.2060 C   0  0  0  0  0  0  0  0  0  0  0  0
    6.3866   15.4989    6.3666 C   0  0  0  0  0  0  0  0  0  0  0  0
    5.8534   14.9781    7.6851 C   0  0  2  0  0  0  0  0  0  0  0  0
    5.0167   16.0496    8.3332 C   0  0  0  0  0  2  0  0  0  0  0  0
    7.0496   14.6445    8.5525 C   0  0  0  0  0  0  0  0  0  0  0  0
    6.4794   14.0624    9.8531 C   0  0  0  0  0  0  0  0  0  0  0  0
    5.5243   12.9498    9.4005 C   0  0  0  0  0  0  0  0  0  0  0  0
    4.6608   12.6436   10.6311 C   0  0  0  0  0  0  0  0  0  0  0  0
    5.1642   13.5857   11.7235 C   0  0  0  0  0  0  0  0  0  0  0  0
    6.2942   12.9852   12.5033 C   0  0  0  0  0  0  0  0  0  0  0  0
    7.0844   14.1092   13.1614 C   0  0  0  0  0  0  0  0  0  0  0  0
    6.1379   14.8841   14.0703 C   0  0  0  0  0  0  0  0  0  0  0  0
    5.9771   14.0963   15.3289 C   0  0  2  0  0  0  0  0  0  0  0  0
    5.1586   12.8552   15.1784 C   0  0  0  0  0  0  0  0  0  0  0  0
    5.6315   14.9193   16.5313 C   0  0  2  0  0  0  0  0  0  0  0  0
    6.8672   15.3188   17.2804 C   0  0  0  0  0  0  0  0  0  0  0  0
    4.6544   14.1329   17.3797 C   0  0  0  0  0  3  0  0  0  0  0  0
    5.4126   13.2744   18.3555 C   0  0  0  0  0  2  0  0  0  0  0  0
    3.4568   15.2055   18.1987 S   0  0  0  0  0  0  0  0  0  0  0  0
  1  2  1  0
  2  3  1  0
  2  4  1  0
  4  5  1  0
  5  6  1  0
  6  7  1  0
  7  8  1  1
  7  9  1  0
  9 10  1  1
  9 11  1  0
 11 12  1  0
 11 13  1  0
 13 14  1  0
 14 15  1  1
 14 16  1  0
 16 17  1  0
 17 18  1  0
 18 19  1  0
 19 20  1  0
 20 21  1  0
 21 22  1  0
 22 23  1  0
 23 24  1  0
 24 25  1  6
 24 26  1  0
 26 27  1  1
 26 28  1  0
 28 29  1  0
 28 30  1  0
M  RAD  4  11   2  15   3  28   2  29   3
M  END
>  <docking_score>  (2) 
0.76200000000000001

$$$$

     RDKit          3D

 30 29  0  0  0  0  0  0  0  0999 V2000
   16.7836   -1.4547   -8.2809 C   0  0  0  0  0  0  0  0  0  0  0  0
   17.6887   -2.1455   -7.2815 C   0  0  0  0  0  0  0  0  0  0  0  0
   19.1213   -2.0849   -7.7474 C   0  0  0  0  0  0  0  0  0  0  0  0
   17.2476   -3.6042   -7.1067 C   0  0  0  0  0  0  0  0  0  0  0  0
   16.0377   -3.8822   -7.9593 C   0  0  0  0  0  0  0  0  0  0  0  0
   14.7891   -3.4651   -7.2452 C   0  0  0  0  0  0  0  0  0  0  0  0
   15.1713   -2.4646   -6.1767 C   0  0  1  0  0  0  0  0  0  0  0  0
   14.7239   -1.0626   -6.5363 C   0  0  0  0  0  0  0  0  0  0  0  0
   14.6433   -2.8638   -4.8189 C   0  0  2  0  0  0  0  0  0  0  0  0
   13.6161   -3.7872   -4.8864 O   0  0  0  0  0  0  0  0  0  0  0  0
   14.2300   -1.5962   -4.1022 C   0  0  0  0  0  3  0  0  0  0  0  0
   13.5191   -0.7030   -5.0783 C   0  0  0  0  0  0  0  0  0  0  0  0
   15.4800   -0.9631   -3.5290 C   0  0  0  0  0  0  0  0  0  0  0  0
   15.8881   -1.7982   -2.3331 C   0  0  2  0  0  0  0  0  0  0  0  0
   15.8665   -0.9329   -1.1006 C   0  0  0  0  0  2  0  0  0  0  0  0
   17.2904   -2.3060   -2.5981 C   0  0  0  0  0  0  0  0  0  0  0  0
   18.0794   -1.1057   -3.1389 C   0  0  0  0  0  0  0  0  0  0  0  0
   19.4228   -1.1524   -2.3986 C   0  0  0  0  0  0  0  0  0  0  0  0
   20.4699   -0.7701   -3.4527 C   0  0  0  0  0  0  0  0  0  0  0  0
   21.0746   -2.0927   -3.9208 C   0  0  0  0  0  0  0  0  0  0  0  0
   20.0361   -3.0151   -4.4830 C   0  0  0  0  0  0  0  0  0  0  0  0
   20.6500   -4.3998   -4.6459 C   0  0  0  0  0  0  0  0  0  0  0  0
   19.5166   -5.4010   -4.8343 C   0  0  0  0  0  0  0  0  0  0  0  0
   19.6033   -5.9211   -6.2317 C   0  0  2  0  0  0  0  0  0  0  0  0
   18.5431   -6.9124   -6.5867 C   0  0  0  0  0  0  0  0  0  0  0  0
   20.9833   -6.3167   -6.6577 C   0  0  2  0  0  0  0  0  0  0  0  0
   21.3743   -5.6168   -7.9246 C   0  0  0  0  0  0  0  0  0  0  0  0
   21.0286   -7.8254   -6.7778 C   0  0  0  0  0  3  0  0  0  0  0  0
   20.7136   -8.4461   -5.4438 C   0  0  0  0  0  2  0  0  0  0  0  0
   19.9450   -8.4309   -8.0871 S   0  0  0  0  0  0  0  0  0  0  0  0
  1  2  1  0
  2  3  1  0
  2  4  1  0
  4  5  1  0
  5  6  1  0
  6  7  1  0
  7  8  1  6
  7  9  1  0
  9 10  1  6
  9 11  1  0
 11 12  1  0
 11 13  1  0
 13 14  1  0
 14 15  1  1
 14 16  1  0
 16 17  1  0
 17 18  1  0
 18 19  1  0
 19 20  1  0
 20 21  1  0
 21 22  1  0
 22 23  1  0
 23 24  1  0
 24 25  1  1
 24 26  1  0
 26 27  1  6
 26 28  1  0
 28 29  1  0
 28 30  1  0
M  RAD  4  11   2  15   3  28   2  29   3
M  END
>  <docking_score>  (3) 
2.0179999999999998

$$$$
