
     RDKit          3D

 37 41  0  0  0  0  0  0  0  0999 V2000
    3.1818    7.1302    8.4294 C   0  0  0  0  0  0  0  0  0  0  0  0
    4.0809    8.0089    7.8039 O   0  0  0  0  0  0  0  0  0  0  0  0
    4.1561    9.3321    8.1555 C   0  0  0  0  0  0  0  0  0  0  0  0
    4.5997    9.7391    9.4228 C   0  0  0  0  0  0  0  0  0  0  0  0
    4.6124   11.1042    9.6826 C   0  0  0  0  0  0  0  0  0  0  0  0
    5.0279   11.5908   10.9467 C   0  0  0  0  0  0  0  0  0  0  0  0
    5.4434   10.6537   11.8736 N   0  0  0  0  0  0  0  0  0  0  0  0
    4.7440    9.6147   12.4988 C   0  0  0  0  0  0  0  0  0  0  0  0
    3.6858    9.9457   13.3380 C   0  0  0  0  0  0  0  0  0  0  0  0
    3.0161    8.8828   13.9626 C   0  0  0  0  0  0  0  0  0  0  0  0
    3.3667    7.5705   13.7724 C   0  0  0  0  0  0  0  0  0  0  0  0
    2.3765    6.1974   14.6778 Br  0  0  0  0  0  0  0  0  0  0  0  0
    4.4275    7.2609   12.9299 C   0  0  0  0  0  0  0  0  0  0  0  0
    5.0885    8.3270   12.3126 C   0  0  0  0  0  0  0  0  0  0  0  0
    6.1305    7.9642   11.5109 F   0  0  0  0  0  0  0  0  0  0  0  0
    5.0065   12.8991   11.1717 N   0  0  0  0  0  0  0  0  0  0  0  0
    4.5950   13.7887   10.2209 C   0  0  0  0  0  0  0  0  0  0  0  0
    4.2103   13.3344    9.0436 N   0  0  0  0  0  0  0  0  0  0  0  0
    4.2110   11.9918    8.7380 C   0  0  0  0  0  0  0  0  0  0  0  0
    3.7765   11.6317    7.4774 C   0  0  0  0  0  0  0  0  0  0  0  0
    3.7628   10.2649    7.2174 C   0  0  0  0  0  0  0  0  0  0  0  0
    3.3689    9.7080    5.8682 C   0  0  0  0  0  0  0  0  0  0  0  0
    4.1601    8.4905    5.4982 C   0  0  0  0  0  0  0  0  0  0  0  0
    5.2254    8.8391    4.5192 C   0  0  1  0  0  0  0  0  0  0  0  0
    4.7905    9.2456    3.1902 C   0  0  0  0  0  0  0  0  0  0  0  0
    5.1016   10.5798    2.6864 C   0  0  0  0  0  0  0  0  0  0  0  0
    5.1022   11.7792    3.3680 C   0  0  0  0  0  0  0  0  0  0  0  0
    5.5217   12.9919    2.6415 C   0  0  0  0  0  0  0  0  0  0  0  0
    6.4811   13.8064    3.4758 C   0  0  0  0  0  0  0  0  0  0  0  0
    7.6917   13.3533    3.7200 C   0  0  0  0  0  0  0  0  0  0  0  0
    8.5459   14.1173    4.4808 F   0  0  0  0  0  0  0  0  0  0  0  0
    4.8306   11.8900    4.7592 C   0  0  0  0  0  0  0  0  0  0  0  0
    3.8706   12.6265    5.3321 N   0  0  0  0  0  0  0  0  0  0  0  0
    3.3362   12.6322    6.4685 C   0  0  0  0  0  0  0  0  0  0  0  0
    2.4258   13.5104    6.9598 F   0  0  0  0  0  0  0  0  0  0  0  0
    5.7451   11.0195    5.5817 C   0  0  0  0  0  0  0  0  0  0  0  0
    6.1754    9.7924    5.1141 C   0  0  0  0  0  0  0  0  0  0  0  0
  1  2  1  0
  2  3  1  0
  3  4  2  0
  4  5  1  0
  5  6  2  0
  6  7  1  0
  7  8  1  0
  8  9  2  0
  9 10  1  0
 10 11  2  0
 11 12  1  0
 11 13  1  0
 13 14  2  0
 14 15  1  0
  6 16  1  0
 16 17  2  0
 17 18  1  0
 18 19  2  0
 19 20  1  0
 20 21  2  0
 21 22  1  0
 22 23  1  0
 24 23  1  1
 24 25  1  0
 25 26  1  0
 26 27  2  0
 27 28  1  0
 28 29  1  0
 29 30  2  3
 30 31  1  0
 27 32  1  0
 32 33  1  0
 33 34  2  3
 34 35  1  0
 32 36  1  0
 36 37  2  0
 21  3  1  0
 19  5  1  0
 14  8  1  0
 34 20  1  0
 37 24  1  0
M  END
>  <docking_score>  (1) 
-4.7060000000000004

$$$$

     RDKit          3D

 37 41  0  0  0  0  0  0  0  0999 V2000
   21.1759   -5.1858   -2.4324 C   0  0  0  0  0  0  0  0  0  0  0  0
   19.8043   -5.1999   -2.7329 O   0  0  0  0  0  0  0  0  0  0  0  0
   19.3412   -4.9256   -3.9940 C   0  0  0  0  0  0  0  0  0  0  0  0
   19.3709   -5.8821   -5.0199 C   0  0  0  0  0  0  0  0  0  0  0  0
   18.8996   -5.4902   -6.2670 C   0  0  0  0  0  0  0  0  0  0  0  0
   18.9168   -6.3941   -7.3579 C   0  0  0  0  0  0  0  0  0  0  0  0
   19.3860   -7.6697   -7.1078 N   0  0  0  0  0  0  0  0  0  0  0  0
   18.7780   -8.9180   -7.2852 C   0  0  0  0  0  0  0  0  0  0  0  0
   19.1927   -9.7059   -8.3533 C   0  0  0  0  0  0  0  0  0  0  0  0
   18.5522  -10.9438   -8.5137 C   0  0  0  0  0  0  0  0  0  0  0  0
   17.5616  -11.3815   -7.6720 C   0  0  0  0  0  0  0  0  0  0  0  0
   16.7572  -13.0960   -7.9866 Br  0  0  0  0  0  0  0  0  0  0  0  0
   17.1615  -10.5789   -6.6106 C   0  0  0  0  0  0  0  0  0  0  0  0
   17.8055   -9.3473   -6.4596 C   0  0  0  0  0  0  0  0  0  0  0  0
   17.3605   -8.5960   -5.4118 F   0  0  0  0  0  0  0  0  0  0  0  0
   18.4813   -5.9820   -8.5424 N   0  0  0  0  0  0  0  0  0  0  0  0
   18.0184   -4.7126   -8.7400 C   0  0  0  0  0  0  0  0  0  0  0  0
   18.0011   -3.8725   -7.7230 N   0  0  0  0  0  0  0  0  0  0  0  0
   18.4322   -4.2319   -6.4656 C   0  0  0  0  0  0  0  0  0  0  0  0
   18.3784   -3.2654   -5.4803 C   0  0  0  0  0  0  0  0  0  0  0  0
   18.8511   -3.6574   -4.2318 C   0  0  0  0  0  0  0  0  0  0  0  0
   18.8092   -2.7381   -3.0324 C   0  0  0  0  0  0  0  0  0  0  0  0
   18.5311   -3.4735   -1.7568 C   0  0  0  0  0  0  0  0  0  0  0  0
   17.1098   -3.2966   -1.3526 C   0  0  1  0  0  0  0  0  0  0  0  0
   16.7037   -1.9596   -0.9425 C   0  0  0  0  0  0  0  0  0  0  0  0
   15.6745   -1.2390   -1.6857 C   0  0  0  0  0  0  0  0  0  0  0  0
   15.4670   -1.1971   -3.0489 C   0  0  0  0  0  0  0  0  0  0  0  0
   14.3055   -0.4410   -3.5527 C   0  0  0  0  0  0  0  0  0  0  0  0
   13.8739   -0.9655   -4.9012 C   0  0  0  0  0  0  0  0  0  0  0  0
   14.4246   -0.4946   -5.9992 C   0  0  0  0  0  0  0  0  0  0  0  0
   14.0141   -0.9923   -7.2141 F   0  0  0  0  0  0  0  0  0  0  0  0
   16.2441   -1.9354   -3.9829 C   0  0  0  0  0  0  0  0  0  0  0  0
   16.9475   -1.4404   -5.0089 N   0  0  0  0  0  0  0  0  0  0  0  0
   17.8664   -1.8924   -5.7357 C   0  0  0  0  0  0  0  0  0  0  0  0
   18.4349   -1.3116   -6.8224 F   0  0  0  0  0  0  0  0  0  0  0  0
   16.2430   -3.4103   -3.6740 C   0  0  0  0  0  0  0  0  0  0  0  0
   16.2132   -3.8673   -2.3702 C   0  0  0  0  0  0  0  0  0  0  0  0
  1  2  1  0
  2  3  1  0
  3  4  2  0
  4  5  1  0
  5  6  2  0
  6  7  1  0
  7  8  1  0
  8  9  2  0
  9 10  1  0
 10 11  2  0
 11 12  1  0
 11 13  1  0
 13 14  2  0
 14 15  1  0
  6 16  1  0
 16 17  2  0
 17 18  1  0
 18 19  2  0
 19 20  1  0
 20 21  2  0
 21 22  1  0
 22 23  1  0
 24 23  1  6
 24 25  1  0
 25 26  1  0
 26 27  2  0
 27 28  1  0
 28 29  1  0
 29 30  2  3
 30 31  1  0
 27 32  1  0
 32 33  1  0
 33 34  2  3
 34 35  1  0
 32 36  1  0
 36 37  2  0
 21  3  1  0
 19  5  1  0
 14  8  1  0
 34 20  1  0
 37 24  1  0
M  END
>  <docking_score>  (2) 
-3.5609999999999999

$$$$

     RDKit          3D

 37 41  0  0  0  0  0  0  0  0999 V2000
    3.3980    7.9743    7.7325 C   0  0  0  0  0  0  0  0  0  0  0  0
    3.8810    8.8075    8.7543 O   0  0  0  0  0  0  0  0  0  0  0  0
    4.0757   10.1502    8.5561 C   0  0  0  0  0  0  0  0  0  0  0  0
    3.6928   10.7880    7.3666 C   0  0  0  0  0  0  0  0  0  0  0  0
    3.9598   12.1476    7.2610 C   0  0  0  0  0  0  0  0  0  0  0  0
    3.6213   12.8566    6.0819 C   0  0  0  0  0  0  0  0  0  0  0  0
    2.9931   12.1423    5.0794 N   0  0  0  0  0  0  0  0  0  0  0  0
    3.2427   10.8596    4.5775 C   0  0  0  0  0  0  0  0  0  0  0  0
    2.2915    9.8698    4.7990 C   0  0  0  0  0  0  0  0  0  0  0  0
    2.5789    8.5913    4.2981 C   0  0  0  0  0  0  0  0  0  0  0  0
    3.7348    8.3031    3.6183 C   0  0  0  0  0  0  0  0  0  0  0  0
    4.0209    6.5169    2.9752 Br  0  0  0  0  0  0  0  0  0  0  0  0
    4.6730    9.3063    3.4076 C   0  0  0  0  0  0  0  0  0  0  0  0
    4.3773   10.5767    3.9109 C   0  0  0  0  0  0  0  0  0  0  0  0
    5.3408   11.5161    3.6888 F   0  0  0  0  0  0  0  0  0  0  0  0
    3.9107   14.1499    6.0028 N   0  0  0  0  0  0  0  0  0  0  0  0
    4.5256   14.8160    7.0240 C   0  0  0  0  0  0  0  0  0  0  0  0
    4.8386   14.1552    8.1221 N   0  0  0  0  0  0  0  0  0  0  0  0
    4.5644   12.8147    8.2763 C   0  0  0  0  0  0  0  0  0  0  0  0
    4.9480   12.2251    9.4650 C   0  0  0  0  0  0  0  0  0  0  0  0
    4.6815   10.8636    9.5705 C   0  0  0  0  0  0  0  0  0  0  0  0
    4.9866   10.0807   10.8273 C   0  0  0  0  0  0  0  0  0  0  0  0
    3.9678    9.0163   11.1002 C   0  0  0  0  0  0  0  0  0  0  0  0
    3.0267    9.4568   12.1656 C   0  0  1  0  0  0  0  0  0  0  0  0
    3.5735    9.6037   13.5073 C   0  0  0  0  0  0  0  0  0  0  0  0
    3.5634   10.9034   14.1716 C   0  0  0  0  0  0  0  0  0  0  0  0
    3.7959   12.1499   13.6283 C   0  0  0  0  0  0  0  0  0  0  0  0
    3.6604   13.3273   14.5057 C   0  0  0  0  0  0  0  0  0  0  0  0
    4.4513   13.1365   15.7777 C   0  0  0  0  0  0  0  0  0  0  0  0
    3.8283   12.9116   16.9143 C   0  0  0  0  0  0  0  0  0  0  0  0
    4.5739   12.7388   18.0574 F   0  0  0  0  0  0  0  0  0  0  0  0
    4.0465   12.3679   12.2458 C   0  0  0  0  0  0  0  0  0  0  0  0
    5.1237   12.9546   11.7094 N   0  0  0  0  0  0  0  0  0  0  0  0
    5.6160   12.9861   10.5546 C   0  0  0  0  0  0  0  0  0  0  0  0
    6.6766   13.7110   10.1175 F   0  0  0  0  0  0  0  0  0  0  0  0
    2.9474   11.8083   11.3801 C   0  0  0  0  0  0  0  0  0  0  0  0
    2.2821   10.6488   11.7302 C   0  0  0  0  0  0  0  0  0  0  0  0
  1  2  1  0
  2  3  1  0
  3  4  2  0
  4  5  1  0
  5  6  2  0
  6  7  1  0
  7  8  1  0
  8  9  2  0
  9 10  1  0
 10 11  2  0
 11 12  1  0
 11 13  1  0
 13 14  2  0
 14 15  1  0
  6 16  1  0
 16 17  2  0
 17 18  1  0
 18 19  2  0
 19 20  1  0
 20 21  2  0
 21 22  1  0
 22 23  1  0
 24 23  1  6
 24 25  1  0
 25 26  1  0
 26 27  2  0
 27 28  1  0
 28 29  1  0
 29 30  2  3
 30 31  1  0
 27 32  1  0
 32 33  1  0
 33 34  2  3
 34 35  1  0
 32 36  1  0
 36 37  2  0
 21  3  1  0
 19  5  1  0
 14  8  1  0
 34 20  1  0
 37 24  1  0
M  END
>  <docking_score>  (3) 
-3.427

$$$$
