
     RDKit          3D

 48 50  0  0  0  0  0  0  0  0999 V2000
    3.9657   15.5181    4.9269 C   0  0  0  0  0  0  0  0  0  0  0  0
    5.2166   14.8793    5.4854 C   0  0  0  0  0  0  0  0  0  0  0  0
    5.7065   15.5732    6.7237 C   0  0  0  0  0  0  0  0  0  0  0  0
    4.9871   13.3838    5.7271 C   0  0  0  0  0  0  0  0  0  0  0  0
    6.3107   12.7074    5.5367 C   0  0  0  0  0  0  0  0  0  0  0  0
    6.4812   11.4603    6.3422 C   0  0  0  0  0  0  0  0  0  0  0  0
    5.3820   11.2016    7.3174 C   0  0  1  0  0  0  0  0  0  0  0  0
    5.1918    9.7635    7.6720 C   0  0  0  0  0  0  0  0  0  0  0  0
    5.5023   12.1079    8.5194 C   0  0  0  0  0  3  0  0  0  0  0  0
    5.9457   11.3313    9.7136 C   0  0  0  0  0  0  0  0  0  0  0  0
    5.0833   11.4975   10.9203 C   0  0  0  0  0  0  0  0  0  0  0  0
    3.8557   12.3140   10.6821 C   0  0  0  0  0  0  0  0  0  0  0  0
    3.0887   11.8881    9.4566 C   0  0  0  0  0  0  0  0  0  0  0  0
    4.2205   13.7911   10.6034 C   0  0  0  0  0  0  0  0  0  0  0  0
    2.9338   12.1620   11.8729 C   0  0  0  0  0  0  0  0  0  0  0  0
    3.4585   11.0953   12.8105 C   0  0  0  0  0  3  0  0  0  0  0  0
    2.2676   10.3434   13.3453 C   0  0  0  0  0  0  0  0  0  0  0  0
    2.6146    8.9563   13.7917 C   0  0  0  0  0  0  0  0  0  0  0  0
    3.0951    8.1578   12.6137 C   0  0  2  0  0  0  0  0  0  0  0  0
    4.8302    7.4272   13.0120 Br  0  0  0  0  0  0  0  0  0  0  0  0
    3.0792    8.9297   11.4768 O   0  0  0  0  0  0  0  0  0  0  0  0
    2.4149    8.3144   10.4170 C   0  0  0  0  0  0  0  0  0  0  0  0
    3.3871    8.0723    9.2662 C   0  0  1  0  0  0  0  0  0  0  0  0
    4.6985    8.3328    9.5880 O   0  0  0  0  0  0  0  0  0  0  0  0
    3.1815    6.4198    8.5152 S   0  0  0  0  0  0  0  0  0  0  0  0
    2.2662    7.4993    7.5100 O   0  0  0  0  0  0  0  0  0  0  0  0
    2.8602    8.6642    8.0002 C   0  0  2  0  0  0  0  0  0  0  0  0
    3.9288    9.1880    7.1042 C   0  0  0  0  0  0  0  0  0  0  0  0
    3.7296    9.1296    5.7960 C   0  0  0  0  0  0  0  0  0  0  0  0
    2.4739    8.5560    5.2814 C   0  0  0  0  0  0  0  0  0  0  0  0
    4.7571    9.6433    4.9007 C   0  0  0  0  0  0  0  0  0  0  0  0
    4.5279    9.5910    3.4534 C   0  0  2  0  0  0  0  0  0  0  0  0
    4.4582    8.4185    2.5848 C   0  0  2  0  0  0  0  0  0  0  0  0
    4.7325    7.0366    3.0739 C   0  0  0  0  0  0  0  0  0  0  0  0
    4.1913    6.8611    4.4629 C   0  0  0  0  0  0  0  0  0  0  0  0
    5.6307    9.3760    2.4734 C   0  0  1  0  0  0  0  0  0  0  0  0
    5.8183   10.1510    1.4309 O   0  0  0  0  0  0  0  0  0  0  0  0
    5.4417   11.3712    1.2037 C   0  0  0  0  0  0  0  0  0  0  0  0
    5.1329   12.3964    2.1757 C   0  0  0  0  0  0  0  0  0  0  0  0
    5.2696   13.8278    1.8187 C   0  0  0  0  0  2  0  0  0  0  0  0
    6.6839   14.3307    1.8241 C   0  0  2  0  0  0  0  0  0  0  0  0
    7.3269   14.1315    0.6104 O   0  0  0  0  0  0  0  0  0  0  0  0
    7.5035   13.7822    2.9561 C   0  0  0  0  0  0  0  0  0  0  0  0
    8.6240   14.7481    3.2529 C   0  0  1  0  0  0  0  0  0  0  0  0
    8.0158   16.0738    3.7056 C   0  0  0  0  0  2  0  0  0  0  0  0
    9.4907   14.2244    4.3938 C   0  0  0  0  0  0  0  0  0  0  0  0
   10.9373   14.5894    4.1652 C   0  0  0  0  0  0  0  0  0  0  0  0
    9.4038   14.9102    2.1226 F   0  0  0  0  0  0  0  0  0  0  0  0
  1  2  1  0
  2  3  1  0
  2  4  1  0
  4  5  1  0
  5  6  1  0
  7  6  1  6
  7  8  1  0
  7  9  1  0
  9 10  1  0
 10 11  1  0
 11 12  1  0
 12 13  1  0
 12 14  1  0
 12 15  1  0
 15 16  1  0
 16 17  1  0
 17 18  1  0
 18 19  1  0
 19 20  1  1
 19 21  1  0
 21 22  1  0
 22 23  1  0
 23 24  1  1
 23 25  1  0
 25 26  1  0
 27 26  1  6
 27 28  1  0
 28 29  2  3
 29 30  1  0
 29 31  1  0
 32 31  1  1
 32 33  1  0
 33 34  1  1
 34 35  1  0
 33 36  1  0
 36 37  1  6
 37 38  1  0
 38 39  1  0
 39 40  1  0
 40 41  1  0
 41 42  1  6
 41 43  1  0
 43 44  1  0
 44 45  1  1
 44 46  1  0
 46 47  1  0
 44 48  1  0
 28  8  1  0
 27 23  1  0
 36 32  1  0
M  RAD  4   9   2  16   2  40   3  45   3
M  END
>  <docking_score>  (1) 
1.609

$$$$
