
     RDKit          3D

 26 27  0  0  0  0  0  0  0  0999 V2000
   20.9383    1.4036   -3.9836 C   0  0  0  0  0  0  0  0  0  0  0  0
   20.8940    0.1125   -3.2323 C   0  0  0  0  0  0  0  0  0  0  0  0
   20.5533    0.2902   -1.7700 C   0  0  0  0  0  0  0  0  0  0  0  0
   20.0478   -0.9360   -3.9035 C   0  0  0  0  0  0  0  0  0  0  0  0
   19.3231   -1.7609   -2.8696 C   0  0  2  0  0  0  0  0  0  0  0  0
   20.2181   -2.5825   -2.0230 C   0  0  0  0  0  0  0  0  0  0  0  0
   20.3318   -3.9961   -2.5644 C   0  0  1  0  0  0  0  0  0  0  0  0
   21.2889   -4.8414   -1.7920 C   0  0  0  0  0  0  0  0  0  0  0  0
   18.9238   -4.5801   -2.4270 C   0  0  0  0  0  3  0  0  0  0  0  0
   18.0664   -3.8736   -3.4120 C   0  0  2  0  0  0  0  0  0  0  0  0
   18.3457   -4.4259   -4.7936 C   0  0  0  0  0  0  0  0  0  0  0  0
   17.8912   -5.8696   -4.7922 C   0  0  1  0  0  0  0  0  0  0  0  0
   18.9736   -6.6724   -4.0906 C   0  0  0  0  0  0  0  0  0  0  0  0
   16.6227   -5.9323   -3.9500 C   0  0  0  0  0  0  0  0  0  0  0  0
   15.4186   -5.5354   -4.7895 C   0  0  2  0  0  0  0  0  0  0  0  0
   14.4982   -6.6675   -4.7580 N   0  0  0  0  0  1  0  0  0  0  0  0
   15.8089   -5.1596   -6.1940 C   0  0  0  0  0  0  0  0  0  0  0  0
   15.9940   -3.6673   -6.3067 C   0  0  0  0  0  0  0  0  0  0  0  0
   14.8589   -2.8779   -5.7439 C   0  0  1  0  0  0  0  0  0  0  0  0
   13.9066   -3.6617   -5.0971 O   0  0  0  0  0  0  0  0  0  0  0  0
   15.2675   -1.7849   -4.8129 C   0  0  2  0  0  0  0  0  0  0  0  0
   14.0812   -0.8183   -4.7054 C   0  0  0  0  0  0  0  0  0  0  0  0
   16.3352   -1.0464   -5.2744 O   0  0  0  0  0  0  0  0  0  0  0  0
   17.8370   -1.8110   -5.1027 S   0  0  0  0  0  0  0  0  0  0  0  0
   18.1076   -2.4064   -3.3883 C   0  0  2  0  0  0  0  0  0  0  0  0
   16.6818   -1.8095   -2.4008 S   0  0  0  0  0  0  0  0  0  0  0  0
  1  2  1  0
  2  3  1  0
  2  4  1  0
  5  4  1  6
  5  6  1  0
  6  7  1  0
  7  8  1  1
  7  9  1  0
 10  9  1  1
 10 11  1  0
 11 12  1  0
 12 13  1  1
 12 14  1  0
 14 15  1  0
 15 16  1  6
 15 17  1  0
 17 18  1  0
 18 19  1  0
 19 20  1  1
 19 21  1  0
 21 22  1  6
 21 23  1  0
 23 24  1  0
 24 25  1  0
 25 26  1  1
 25  5  1  0
 25 10  1  0
M  CHG  1  16   1
M  RAD  2   9   2  16   2
M  END
>  <docking_score>  (1) 
-6.4429999999999996

$$$$

     RDKit          3D

 26 27  0  0  0  0  0  0  0  0999 V2000
   19.8241   -0.9576   -2.0342 C   0  0  0  0  0  0  0  0  0  0  0  0
   20.6836   -2.1717   -2.1778 C   0  0  0  0  0  0  0  0  0  0  0  0
   20.8372   -2.9440   -0.8871 C   0  0  0  0  0  0  0  0  0  0  0  0
   20.2853   -3.0473   -3.3357 C   0  0  0  0  0  0  0  0  0  0  0  0
   19.2811   -4.0792   -2.8872 C   0  0  2  0  0  0  0  0  0  0  0  0
   19.8535   -5.4324   -2.7024 C   0  0  0  0  0  0  0  0  0  0  0  0
   19.6511   -6.2824   -3.9437 C   0  0  1  0  0  0  0  0  0  0  0  0
   20.2840   -7.6297   -3.8377 C   0  0  0  0  0  0  0  0  0  0  0  0
   18.1340   -6.4491   -4.0582 C   0  0  0  0  0  3  0  0  0  0  0  0
   17.5811   -5.1206   -4.4242 C   0  0  2  0  0  0  0  0  0  0  0  0
   17.8362   -4.8693   -5.8952 C   0  0  0  0  0  0  0  0  0  0  0  0
   17.0291   -5.8928   -6.6645 C   0  0  1  0  0  0  0  0  0  0  0  0
   17.8000   -7.2004   -6.6022 C   0  0  0  0  0  0  0  0  0  0  0  0
   15.7145   -6.0725   -5.9149 C   0  0  0  0  0  0  0  0  0  0  0  0
   14.7352   -4.9778   -6.3087 C   0  0  2  0  0  0  0  0  0  0  0  0
   13.5567   -5.6485   -6.8484 N   0  0  0  0  0  1  0  0  0  0  0  0
   15.3370   -4.0087   -7.2909 C   0  0  0  0  0  0  0  0  0  0  0  0
   15.9076   -2.8143   -6.5684 C   0  0  0  0  0  0  0  0  0  0  0  0
   14.9655   -2.2008   -5.5865 C   0  0  1  0  0  0  0  0  0  0  0  0
   13.7887   -2.9267   -5.4207 O   0  0  0  0  0  0  0  0  0  0  0  0
   15.5524   -1.9571   -4.2357 C   0  0  2  0  0  0  0  0  0  0  0  0
   14.6485   -0.9387   -3.5294 C   0  0  0  0  0  0  0  0  0  0  0  0
   16.8116   -1.3996   -4.2810 O   0  0  0  0  0  0  0  0  0  0  0  0
   18.0450   -2.4954   -4.6653 S   0  0  0  0  0  0  0  0  0  0  0  0
   17.9942   -3.9835   -3.5930 C   0  0  2  0  0  0  0  0  0  0  0  0
   16.6838   -3.6798   -2.3460 S   0  0  0  0  0  0  0  0  0  0  0  0
  1  2  1  0
  2  3  1  0
  2  4  1  0
  5  4  1  6
  5  6  1  0
  6  7  1  0
  7  8  1  1
  7  9  1  0
 10  9  1  1
 10 11  1  0
 11 12  1  0
 12 13  1  1
 12 14  1  0
 14 15  1  0
 15 16  1  6
 15 17  1  0
 17 18  1  0
 18 19  1  0
 19 20  1  1
 19 21  1  0
 21 22  1  1
 21 23  1  0
 23 24  1  0
 24 25  1  0
 25 26  1  1
 25  5  1  0
 25 10  1  0
M  CHG  1  16   1
M  RAD  2   9   2  16   2
M  END
>  <docking_score>  (2) 
-6.2060000000000004

$$$$

     RDKit          3D

 26 27  0  0  0  0  0  0  0  0999 V2000
   14.6646   -0.7530   -3.2860 C   0  0  0  0  0  0  0  0  0  0  0  0
   14.2551   -1.2602   -4.6306 C   0  0  0  0  0  0  0  0  0  0  0  0
   14.6655   -0.3422   -5.7597 C   0  0  0  0  0  0  0  0  0  0  0  0
   14.6529   -2.6920   -4.8713 C   0  0  0  0  0  0  0  0  0  0  0  0
   15.7867   -2.7579   -5.8636 C   0  0  2  0  0  0  0  0  0  0  0  0
   15.3717   -3.1791   -7.2212 C   0  0  0  0  0  0  0  0  0  0  0  0
   15.5779   -4.6705   -7.4144 C   0  0  1  0  0  0  0  0  0  0  0  0
   15.0970   -5.1591   -8.7400 C   0  0  0  0  0  0  0  0  0  0  0  0
   17.0930   -4.8687   -7.3270 C   0  0  0  0  0  3  0  0  0  0  0  0
   17.4790   -4.6208   -5.9149 C   0  0  2  0  0  0  0  0  0  0  0  0
   17.1013   -5.8272   -5.0820 C   0  0  0  0  0  0  0  0  0  0  0  0
   17.9571   -6.9800   -5.5609 C   0  0  1  0  0  0  0  0  0  0  0  0
   17.3322   -7.4883   -6.8491 C   0  0  0  0  0  0  0  0  0  0  0  0
   19.3305   -6.4050   -5.8860 C   0  0  0  0  0  0  0  0  0  0  0  0
   20.1621   -6.2911   -4.6180 C   0  0  2  0  0  0  0  0  0  0  0  0
   21.3651   -7.0879   -4.8366 N   0  0  0  0  0  1  0  0  0  0  0  0
   19.3984   -6.7378   -3.4001 C   0  0  0  0  0  0  0  0  0  0  0  0
   18.7564   -5.5554   -2.7193 C   0  0  0  0  0  0  0  0  0  0  0  0
   19.6932   -4.4174   -2.4836 C   0  0  1  0  0  0  0  0  0  0  0  0
   20.9476   -4.6050   -3.0587 O   0  0  0  0  0  0  0  0  0  0  0  0
   19.1759   -3.0888   -2.9260 C   0  0  2  0  0  0  0  0  0  0  0  0
   20.0142   -2.0196   -2.2140 C   0  0  0  0  0  0  0  0  0  0  0  0
   17.8653   -2.8660   -2.5637 O   0  0  0  0  0  0  0  0  0  0  0  0
   16.7297   -3.6753   -3.5254 S   0  0  0  0  0  0  0  0  0  0  0  0
   17.0065   -3.3681   -5.3130 C   0  0  2  0  0  0  0  0  0  0  0  0
   18.3588   -2.1338   -5.4239 S   0  0  0  0  0  0  0  0  0  0  0  0
  1  2  1  0
  2  3  1  0
  2  4  1  0
  5  4  1  1
  5  6  1  0
  6  7  1  0
  7  8  1  6
  7  9  1  0
 10  9  1  6
 10 11  1  0
 11 12  1  0
 12 13  1  6
 12 14  1  0
 14 15  1  0
 15 16  1  6
 15 17  1  0
 17 18  1  0
 18 19  1  0
 19 20  1  6
 19 21  1  0
 21 22  1  1
 21 23  1  0
 23 24  1  0
 24 25  1  0
 25 26  1  1
 25  5  1  0
 25 10  1  0
M  CHG  1  16   1
M  RAD  2   9   2  16   2
M  END
>  <docking_score>  (3) 
-5.8380000000000001

$$$$
