
     RDKit          3D

 17 17  0  0  0  0  0  0  0  0999 V2000
   13.3746   -5.5749   -7.5979 O   0  0  0  0  0  0  0  0  0  0  0  0
   14.5639   -5.2235   -8.2524 C   0  0  0  0  0  0  0  0  0  0  0  0
   15.7717   -5.8643   -7.6256 C   0  0  0  0  0  3  0  0  0  0  0  0
   15.9818   -5.4589   -6.2596 N   0  0  0  0  0  0  0  0  0  0  0  0
   16.0695   -6.6470   -5.4487 C   0  0  2  0  0  0  0  0  0  0  0  0
   14.8429   -6.9067   -4.6249 C   0  0  0  0  0  0  0  0  0  0  0  0
   17.2484   -6.6822   -4.6848 O   0  0  0  0  0  0  0  0  0  0  0  0
   17.1357   -5.5995   -3.8192 C   0  0  1  0  0  0  0  0  0  0  0  0
   17.9855   -5.9322   -2.6290 O   0  0  0  0  0  0  0  0  0  0  0  0
   18.1104   -4.6863   -3.4379 C   0  0  2  0  0  0  0  0  0  0  0  0
   17.7399   -3.6234   -2.6124 O   0  0  0  0  0  0  0  0  0  0  0  0
   16.4441   -3.4656   -2.6094 O   0  0  0  0  0  0  0  0  0  0  0  0
   16.2165   -2.0803   -2.5820 C   0  0  1  0  0  0  0  0  0  0  0  0
   17.3274   -1.4380   -2.0984 F   0  0  0  0  0  0  0  0  0  0  0  0
   15.9175   -1.6745   -3.8787 O   0  0  0  0  0  0  0  0  0  0  0  0
   14.9644   -2.4861   -4.3088 O   0  0  0  0  0  0  0  0  0  0  0  0
   14.8240   -2.2957   -5.5941 O   0  0  0  0  0  0  0  0  0  0  0  0
  1  2  1  0
  2  3  1  0
  3  4  1  0
  4  5  1  0
  5  6  1  1
  5  7  1  0
  8  7  1  6
  8  9  1  0
  8 10  1  0
 10 11  1  1
 11 12  1  0
 12 13  1  0
 13 14  1  6
 13 15  1  0
 15 16  1  0
 16 17  1  0
 10  9  1  0
M  RAD  1   3   2
M  END
>  <docking_score>  (1) 
-3.581

$$$$

     RDKit          3D

 17 17  0  0  0  0  0  0  0  0999 V2000
   14.5527   -4.1163   -6.9178 O   0  0  0  0  0  0  0  0  0  0  0  0
   14.8151   -5.2985   -7.6248 C   0  0  0  0  0  0  0  0  0  0  0  0
   15.9809   -6.0585   -7.0542 C   0  0  0  0  0  3  0  0  0  0  0  0
   15.9410   -6.1602   -5.6181 N   0  0  0  0  0  0  0  0  0  0  0  0
   17.2191   -6.6515   -5.1685 C   0  0  2  0  0  0  0  0  0  0  0  0
   17.4228   -8.1171   -5.4159 C   0  0  0  0  0  0  0  0  0  0  0  0
   17.4895   -6.2874   -3.8386 O   0  0  0  0  0  0  0  0  0  0  0  0
   16.8088   -5.0878   -3.6599 C   0  0  1  0  0  0  0  0  0  0  0  0
   16.2988   -5.1086   -2.2496 O   0  0  0  0  0  0  0  0  0  0  0  0
   17.1325   -4.0195   -2.8333 C   0  0  2  0  0  0  0  0  0  0  0  0
   16.3351   -2.8749   -2.8822 O   0  0  0  0  0  0  0  0  0  0  0  0
   15.4904   -2.9377   -3.8756 O   0  0  0  0  0  0  0  0  0  0  0  0
   14.9367   -1.6537   -4.0030 C   0  0  1  0  0  0  0  0  0  0  0  0
   15.0227   -0.9913   -2.8053 F   0  0  0  0  0  0  0  0  0  0  0  0
   15.6363   -0.9882   -5.0046 O   0  0  0  0  0  0  0  0  0  0  0  0
   14.8015   -0.0904   -5.5036 O   0  0  0  0  0  0  0  0  0  0  0  0
   13.5873   -0.5578   -5.3797 O   0  0  0  0  0  0  0  0  0  0  0  0
  1  2  1  0
  2  3  1  0
  3  4  1  0
  4  5  1  0
  5  6  1  1
  5  7  1  0
  8  7  1  1
  8  9  1  0
  8 10  1  0
 10 11  1  6
 11 12  1  0
 12 13  1  0
 13 14  1  1
 13 15  1  0
 15 16  1  0
 16 17  1  0
 10  9  1  0
M  RAD  1   3   2
M  END
>  <docking_score>  (2) 
-3.2919999999999998

$$$$

     RDKit          3D

 17 17  0  0  0  0  0  0  0  0999 V2000
    3.4976    6.9204    4.3696 O   0  0  0  0  0  0  0  0  0  0  0  0
    4.8231    7.0583    4.8059 C   0  0  0  0  0  0  0  0  0  0  0  0
    5.1022    8.4284    5.3604 C   0  0  0  0  0  3  0  0  0  0  0  0
    5.9865    9.2048    4.5301 N   0  0  0  0  0  0  0  0  0  0  0  0
    5.1845    9.9260    3.5742 C   0  0  2  0  0  0  0  0  0  0  0  0
    5.5970    9.7014    2.1494 C   0  0  0  0  0  0  0  0  0  0  0  0
    5.0757   11.2899    3.8945 O   0  0  0  0  0  0  0  0  0  0  0  0
    6.2401   11.8604    3.3914 C   0  0  1  0  0  0  0  0  0  0  0  0
    5.9010   13.2889    3.0851 O   0  0  0  0  0  0  0  0  0  0  0  0
    7.0335   12.8536    3.9511 C   0  0  2  0  0  0  0  0  0  0  0  0
    8.2121   13.2125    3.2948 O   0  0  0  0  0  0  0  0  0  0  0  0
    8.1966   14.4760    2.9671 O   0  0  0  0  0  0  0  0  0  0  0  0
    9.5182   14.8119    2.6325 C   0  0  1  0  0  0  0  0  0  0  0  0
    9.6268   14.9677    1.2743 F   0  0  0  0  0  0  0  0  0  0  0  0
    9.8409   15.9848    3.3073 O   0  0  0  0  0  0  0  0  0  0  0  0
   10.2655   15.6164    4.5055 O   0  0  0  0  0  0  0  0  0  0  0  0
   11.4832   15.1593    4.3776 O   0  0  0  0  0  0  0  0  0  0  0  0
  1  2  1  0
  2  3  1  0
  3  4  1  0
  4  5  1  0
  5  6  1  6
  5  7  1  0
  8  7  1  1
  8  9  1  0
  8 10  1  0
 10 11  1  6
 11 12  1  0
 12 13  1  0
 13 14  1  6
 13 15  1  0
 15 16  1  0
 16 17  1  0
 10  9  1  0
M  RAD  1   3   2
M  END
>  <docking_score>  (3) 
-3.1840000000000002

$$$$
