
     RDKit          3D

 27 27  0  0  0  0  0  0  0  0999 V2000
    4.1952    8.8063    9.7539 C   0  0  0  0  0  0  0  0  0  0  0  0
    3.0427    9.5155   10.4491 C   0  0  0  0  0  0  0  0  0  0  0  0
    2.2688    8.4775   11.2343 C   0  0  0  0  0  0  0  0  0  0  0  0
    3.6570   10.4872   11.4366 C   0  0  0  0  0  0  0  0  0  0  0  0
    4.5886   11.4575   10.7409 C   0  0  0  0  0  0  0  0  0  0  0  0
    3.7336   12.3644    9.8826 C   0  0  0  0  0  0  0  0  0  0  0  0
    4.4135   13.6836    9.6424 C   0  0  1  0  0  0  0  0  0  0  0  0
    4.8865   14.2944   10.9336 C   0  0  0  0  0  0  0  0  0  0  0  0
    5.5388   13.4747    8.6514 C   0  0  0  0  0  3  0  0  0  0  0  0
    4.9339   13.3788    7.2835 C   0  0  0  0  0  0  0  0  0  0  0  0
    5.9222   12.8003    6.2661 C   0  0  0  0  0  0  0  0  0  0  0  0
    6.2118   13.8930    5.2556 C   0  0  0  0  0  0  0  0  0  0  0  0
    6.9864   14.9732    5.9618 C   0  0  0  0  0  0  0  0  0  0  0  0
    7.0041   13.2781    4.1215 C   0  0  0  0  0  0  0  0  0  0  0  0
    4.9236   14.4448    4.7565 C   0  0  0  0  0  0  0  0  0  0  0  0
    4.2085   13.8193    3.8187 C   0  0  0  0  0  0  0  0  0  0  0  0
    4.5799   12.5752    3.1937 C   0  0  0  0  0  0  0  0  0  0  0  0
    3.7577   11.4103    3.2720 C   0  0  0  0  0  0  0  0  0  0  0  0
    3.8484   10.2480    2.3914 C   0  0  2  0  0  0  0  0  0  0  0  0
    5.1913   10.3793    1.7204 N   0  0  0  0  0  0  0  0  0  0  0  0
    2.8012   10.3379    1.2804 C   0  0  0  0  0  0  0  0  0  0  0  0
    3.8905    8.8916    2.9974 C   0  0  0  0  0  0  0  0  0  0  0  0
    4.8983    8.6168    3.8652 O   0  0  0  0  0  0  0  0  0  0  0  0
    4.5772    7.8117    4.8739 N   0  0  0  0  0  0  0  0  0  0  0  0
    4.9054    8.1193    6.2322 C   0  0  0  0  0  3  0  0  0  0  0  0
    3.4771    8.2985    5.7927 C   0  0  2  0  0  0  0  0  0  0  0  0
    2.4853    7.1634    6.0585 C   0  0  0  0  0  2  0  0  0  0  0  0
  1  2  1  0
  2  3  1  0
  2  4  1  0
  4  5  1  0
  5  6  1  0
  6  7  1  0
  7  8  1  1
  7  9  1  0
  9 10  1  0
 10 11  1  0
 11 12  1  0
 12 13  1  0
 12 14  1  0
 12 15  1  0
 15 16  2  3
 16 17  1  0
 17 18  1  0
 18 19  1  0
 19 20  1  0
 19 21  1  6
 19 22  1  0
 22 23  1  0
 23 24  1  0
 24 25  1  0
 25 26  1  0
 26 27  1  1
 26 24  1  0
M  RAD  3   9   2  25   2  27   3
M  END
>  <docking_score>  (1) 
-2.5019999999999998

$$$$

     RDKit          3D

 27 27  0  0  0  0  0  0  0  0999 V2000
   16.2034   -6.2516   -7.8496 C   0  0  0  0  0  0  0  0  0  0  0  0
   17.2608   -7.3228   -7.6287 C   0  0  0  0  0  0  0  0  0  0  0  0
   18.2923   -7.1866   -8.7288 C   0  0  0  0  0  0  0  0  0  0  0  0
   17.9380   -7.0059   -6.3104 C   0  0  0  0  0  0  0  0  0  0  0  0
   17.8822   -8.1907   -5.3688 C   0  0  0  0  0  0  0  0  0  0  0  0
   19.0667   -8.0774   -4.4336 C   0  0  0  0  0  0  0  0  0  0  0  0
   19.3364   -6.6435   -4.0708 C   0  0  1  0  0  0  0  0  0  0  0  0
   18.0537   -5.8818   -3.8752 C   0  0  0  0  0  0  0  0  0  0  0  0
   20.2234   -6.6134   -2.8442 C   0  0  0  0  0  3  0  0  0  0  0  0
   21.1447   -5.4382   -2.9728 C   0  0  0  0  0  0  0  0  0  0  0  0
   20.3745   -4.1407   -3.2367 C   0  0  0  0  0  0  0  0  0  0  0  0
   20.3883   -3.3444   -1.9464 C   0  0  0  0  0  0  0  0  0  0  0  0
   18.9881   -3.3470   -1.3942 C   0  0  0  0  0  0  0  0  0  0  0  0
   21.3697   -4.0068   -1.0029 C   0  0  0  0  0  0  0  0  0  0  0  0
   20.8073   -1.9482   -2.2434 C   0  0  0  0  0  0  0  0  0  0  0  0
   20.4950   -1.3519   -3.3962 C   0  0  0  0  0  0  0  0  0  0  0  0
   19.7398   -1.9626   -4.4606 C   0  0  0  0  0  0  0  0  0  0  0  0
   18.3235   -1.8158   -4.5684 C   0  0  0  0  0  0  0  0  0  0  0  0
   17.4912   -2.3792   -5.6289 C   0  0  2  0  0  0  0  0  0  0  0  0
   18.3177   -3.4962   -6.2122 N   0  0  0  0  0  0  0  0  0  0  0  0
   17.2935   -1.3587   -6.7506 C   0  0  0  0  0  0  0  0  0  0  0  0
   16.2140   -3.0439   -5.2603 C   0  0  0  0  0  0  0  0  0  0  0  0
   15.3380   -2.3493   -4.4894 O   0  0  0  0  0  0  0  0  0  0  0  0
   14.8658   -1.2303   -5.0314 N   0  0  0  0  0  0  0  0  0  0  0  0
   13.5274   -1.1259   -5.5267 C   0  0  0  0  0  3  0  0  0  0  0  0
   13.8469   -0.4689   -4.2108 C   0  0  2  0  0  0  0  0  0  0  0  0
   14.1959    1.0214   -4.2065 C   0  0  0  0  0  2  0  0  0  0  0  0
  1  2  1  0
  2  3  1  0
  2  4  1  0
  4  5  1  0
  5  6  1  0
  6  7  1  0
  7  8  1  1
  7  9  1  0
  9 10  1  0
 10 11  1  0
 11 12  1  0
 12 13  1  0
 12 14  1  0
 12 15  1  0
 15 16  2  3
 16 17  1  0
 17 18  1  0
 18 19  1  0
 19 20  1  0
 19 21  1  6
 19 22  1  0
 22 23  1  0
 23 24  1  0
 24 25  1  0
 25 26  1  0
 26 27  1  6
 26 24  1  0
M  RAD  3   9   2  25   2  27   3
M  END
>  <docking_score>  (2) 
-1.8979999999999999

$$$$

     RDKit          3D

 27 27  0  0  0  0  0  0  0  0999 V2000
    6.6813   15.5268   10.7230 C   0  0  0  0  0  0  0  0  0  0  0  0
    6.4881   14.3666    9.7581 C   0  0  0  0  0  0  0  0  0  0  0  0
    5.1369   13.7470   10.0465 C   0  0  0  0  0  0  0  0  0  0  0  0
    6.4435   14.9582    8.3635 C   0  0  0  0  0  0  0  0  0  0  0  0
    5.1450   14.6130    7.6647 C   0  0  0  0  0  0  0  0  0  0  0  0
    5.4250   13.4402    6.7501 C   0  0  0  0  0  0  0  0  0  0  0  0
    4.2652   13.1813    5.8292 C   0  0  1  0  0  0  0  0  0  0  0  0
    2.9848   13.0138    6.6015 C   0  0  0  0  0  0  0  0  0  0  0  0
    4.1910   14.3046    4.8169 C   0  0  0  0  0  3  0  0  0  0  0  0
    5.5515   14.4653    4.2091 C   0  0  0  0  0  0  0  0  0  0  0  0
    6.0674   13.1494    3.6187 C   0  0  0  0  0  0  0  0  0  0  0  0
    7.5174   13.3717    3.2349 C   0  0  0  0  0  0  0  0  0  0  0  0
    7.5929   13.3924    1.7318 C   0  0  0  0  0  0  0  0  0  0  0  0
    7.9618   14.6856    3.8418 C   0  0  0  0  0  0  0  0  0  0  0  0
    8.3358   12.2470    3.7624 C   0  0  0  0  0  0  0  0  0  0  0  0
    7.7761   11.1186    4.2045 C   0  0  0  0  0  0  0  0  0  0  0  0
    6.3595   10.8561    4.2259 C   0  0  0  0  0  0  0  0  0  0  0  0
    5.7724    9.7924    3.4756 C   0  0  0  0  0  0  0  0  0  0  0  0
    4.4631    9.1964    3.7315 C   0  0  2  0  0  0  0  0  0  0  0  0
    3.5083    9.9858    2.8734 N   0  0  0  0  0  0  0  0  0  0  0  0
    4.0410    9.4394    5.1812 C   0  0  0  0  0  0  0  0  0  0  0  0
    4.2236    7.7889    3.3187 C   0  0  0  0  0  0  0  0  0  0  0  0
    3.5849    6.9718    4.1954 O   0  0  0  0  0  0  0  0  0  0  0  0
    4.3525    6.4438    5.1444 N   0  0  0  0  0  0  0  0  0  0  0  0
    4.2406    5.0748    5.5451 C   0  0  0  0  0  3  0  0  0  0  0  0
    5.4094    5.4644    4.6805 C   0  0  2  0  0  0  0  0  0  0  0  0
    6.7435    5.7832    5.3597 C   0  0  0  0  0  2  0  0  0  0  0  0
  1  2  1  0
  2  3  1  0
  2  4  1  0
  4  5  1  0
  5  6  1  0
  6  7  1  0
  7  8  1  1
  7  9  1  0
  9 10  1  0
 10 11  1  0
 11 12  1  0
 12 13  1  0
 12 14  1  0
 12 15  1  0
 15 16  2  3
 16 17  1  0
 17 18  1  0
 18 19  1  0
 19 20  1  0
 19 21  1  1
 19 22  1  0
 22 23  1  0
 23 24  1  0
 24 25  1  0
 25 26  1  0
 26 27  1  1
 26 24  1  0
M  RAD  3   9   2  25   2  27   3
M  END
>  <docking_score>  (3) 
-1.7749999999999999

$$$$
