
     RDKit          3D

 23 23  0  0  0  0  0  0  0  0999 V2000
   15.3622   -1.9275   -7.1644 C   0  0  0  0  0  0  0  0  0  0  0  0
   16.2758   -3.1092   -6.8729 C   0  0  1  0  0  0  0  0  0  0  0  0
   17.6270   -2.5121   -6.4344 C   0  0  0  0  0  0  0  0  0  0  0  0
   17.3004   -1.3978   -5.4899 C   0  0  2  0  0  0  0  0  0  0  0  0
   18.5187   -1.0062   -4.9056 O   0  0  0  0  0  0  0  0  0  0  0  0
   16.3105   -1.6637   -4.4425 C   0  0  2  0  0  0  0  0  0  0  0  0
   16.9136   -1.8037   -3.2037 O   0  0  0  0  0  0  0  0  0  0  0  0
   15.2878   -2.7228   -4.6930 C   0  0  1  0  0  0  0  0  0  0  0  0
   14.0505   -2.2272   -5.0755 O   0  0  0  0  0  0  0  0  0  0  0  0
   15.7657   -3.8046   -5.6045 C   0  0  1  0  0  0  0  0  0  0  0  0
   14.6893   -4.6711   -6.0208 N   0  0  0  0  0  0  0  0  0  0  0  0
   15.3417   -5.9476   -6.3550 C   0  0  0  0  0  3  0  0  0  0  0  0
   15.8261   -6.6843   -5.1343 C   0  0  0  0  0  0  0  0  0  0  0  0
   17.2024   -7.2436   -5.4638 C   0  0  2  0  0  0  0  0  0  0  0  0
   17.6503   -6.5076   -6.5631 O   0  0  0  0  0  0  0  0  0  0  0  0
   17.1724   -8.7195   -5.7379 C   0  0  0  0  0  0  0  0  0  0  0  0
   17.7506   -8.9902   -6.9731 O   0  0  0  0  0  0  0  0  0  0  0  0
   18.1049   -6.9491   -4.3071 C   0  0  1  0  0  0  0  0  0  0  0  0
   19.3443   -7.5677   -4.3863 O   0  0  0  0  0  0  0  0  0  0  0  0
   18.1833   -5.4599   -4.0654 C   0  0  2  0  0  0  0  0  0  0  0  0
   19.4474   -5.0041   -4.4999 O   0  0  0  0  0  0  0  0  0  0  0  0
   18.0397   -5.2280   -2.5666 C   0  0  0  0  0  3  0  0  0  0  0  0
   16.6741   -4.9971   -2.3099 O   0  0  0  0  0  0  0  0  0  0  0  0
  2  1  1  1
  2  3  1  0
  3  4  1  0
  4  5  1  1
  4  6  1  0
  6  7  1  1
  6  8  1  0
  8  9  1  6
  8 10  1  0
 10 11  1  6
 11 12  1  0
 12 13  1  0
 13 14  1  0
 14 15  1  6
 14 16  1  0
 16 17  1  0
 14 18  1  0
 18 19  1  6
 18 20  1  0
 20 21  1  1
 20 22  1  0
 22 23  1  0
 10  2  1  0
M  RAD  2  12   2  22   2
M  END
>  <docking_score>  (1) 
-4.0730000000000004

$$$$

     RDKit          3D

 23 23  0  0  0  0  0  0  0  0999 V2000
   16.8375   -4.3666   -1.2852 C   0  0  0  0  0  0  0  0  0  0  0  0
   16.2251   -3.7201   -2.5193 C   0  0  1  0  0  0  0  0  0  0  0  0
   16.8628   -2.3221   -2.6356 C   0  0  0  0  0  0  0  0  0  0  0  0
   18.3245   -2.5106   -2.3740 C   0  0  2  0  0  0  0  0  0  0  0  0
   18.9453   -1.2937   -2.7096 O   0  0  0  0  0  0  0  0  0  0  0  0
   18.9995   -3.6172   -3.0577 C   0  0  2  0  0  0  0  0  0  0  0  0
   19.8023   -3.1575   -4.0882 O   0  0  0  0  0  0  0  0  0  0  0  0
   18.1799   -4.7968   -3.4667 C   0  0  1  0  0  0  0  0  0  0  0  0
   18.2938   -5.8818   -2.6107 O   0  0  0  0  0  0  0  0  0  0  0  0
   16.7549   -4.4569   -3.7559 C   0  0  1  0  0  0  0  0  0  0  0  0
   15.9402   -5.6387   -3.9052 N   0  0  0  0  0  0  0  0  0  0  0  0
   15.6945   -5.7459   -5.3526 C   0  0  0  0  0  3  0  0  0  0  0  0
   14.9308   -4.5675   -5.8965 C   0  0  0  0  0  0  0  0  0  0  0  0
   15.3393   -4.4007   -7.3527 C   0  0  2  0  0  0  0  0  0  0  0  0
   14.2031   -4.7244   -8.0978 O   0  0  0  0  0  0  0  0  0  0  0  0
   16.5232   -5.2487   -7.7183 C   0  0  0  0  0  0  0  0  0  0  0  0
   17.3233   -4.5838   -8.6409 O   0  0  0  0  0  0  0  0  0  0  0  0
   15.6478   -2.9540   -7.5786 C   0  0  1  0  0  0  0  0  0  0  0  0
   14.8346   -2.3441   -8.5229 O   0  0  0  0  0  0  0  0  0  0  0  0
   15.7092   -2.2162   -6.2617 C   0  0  2  0  0  0  0  0  0  0  0  0
   14.8142   -1.1252   -6.3204 O   0  0  0  0  0  0  0  0  0  0  0  0
   17.1334   -1.7049   -6.0858 C   0  0  0  0  0  3  0  0  0  0  0  0
   17.0492   -0.3289   -5.7970 O   0  0  0  0  0  0  0  0  0  0  0  0
  2  1  1  1
  2  3  1  0
  3  4  1  0
  4  5  1  6
  4  6  1  0
  6  7  1  6
  6  8  1  0
  8  9  1  1
  8 10  1  0
 10 11  1  1
 11 12  1  0
 12 13  1  0
 13 14  1  0
 14 15  1  6
 14 16  1  0
 16 17  1  0
 14 18  1  0
 18 19  1  6
 18 20  1  0
 20 21  1  6
 20 22  1  0
 22 23  1  0
 10  2  1  0
M  RAD  2  12   2  22   2
M  END
>  <docking_score>  (2) 
-3.8319999999999999

$$$$

     RDKit          3D

 23 23  0  0  0  0  0  0  0  0999 V2000
   16.5202   -4.9372   -5.6100 C   0  0  0  0  0  0  0  0  0  0  0  0
   16.5803   -5.3221   -4.1389 C   0  0  1  0  0  0  0  0  0  0  0  0
   15.4699   -6.3680   -3.9207 C   0  0  0  0  0  0  0  0  0  0  0  0
   15.5541   -7.3096   -5.0812 C   0  0  2  0  0  0  0  0  0  0  0  0
   14.7111   -8.3926   -4.7722 O   0  0  0  0  0  0  0  0  0  0  0  0
   16.8805   -7.8051   -5.4588 C   0  0  2  0  0  0  0  0  0  0  0  0
   17.0515   -9.1258   -5.0789 O   0  0  0  0  0  0  0  0  0  0  0  0
   18.0682   -6.9647   -5.1216 C   0  0  1  0  0  0  0  0  0  0  0  0
   18.5587   -6.2330   -6.1924 O   0  0  0  0  0  0  0  0  0  0  0  0
   17.8703   -6.1189   -3.9071 C   0  0  1  0  0  0  0  0  0  0  0  0
   18.9259   -5.1473   -3.7510 N   0  0  0  0  0  0  0  0  0  0  0  0
   18.6138   -4.4515   -2.4919 C   0  0  0  0  0  3  0  0  0  0  0  0
   19.2855   -3.1073   -2.3943 C   0  0  0  0  0  0  0  0  0  0  0  0
   18.2465   -2.0581   -2.7618 C   0  0  2  0  0  0  0  0  0  0  0  0
   18.7353   -0.8542   -2.2495 O   0  0  0  0  0  0  0  0  0  0  0  0
   16.8811   -2.3916   -2.2337 C   0  0  0  0  0  0  0  0  0  0  0  0
   16.3209   -1.2795   -1.6150 O   0  0  0  0  0  0  0  0  0  0  0  0
   18.2133   -1.9500   -4.2540 C   0  0  1  0  0  0  0  0  0  0  0  0
   17.0241   -1.4421   -4.7568 O   0  0  0  0  0  0  0  0  0  0  0  0
   19.4426   -1.2309   -4.7579 C   0  0  2  0  0  0  0  0  0  0  0  0
   19.0329   -0.0317   -5.3815 O   0  0  0  0  0  0  0  0  0  0  0  0
   20.1204   -2.1363   -5.7785 C   0  0  0  0  0  3  0  0  0  0  0  0
   21.3824   -2.4806   -5.2564 O   0  0  0  0  0  0  0  0  0  0  0  0
  2  1  1  6
  2  3  1  0
  3  4  1  0
  4  5  1  1
  4  6  1  0
  6  7  1  1
  6  8  1  0
  8  9  1  6
  8 10  1  0
 10 11  1  6
 11 12  1  0
 12 13  1  0
 13 14  1  0
 14 15  1  1
 14 16  1  0
 16 17  1  0
 14 18  1  0
 18 19  1  1
 18 20  1  0
 20 21  1  6
 20 22  1  0
 22 23  1  0
 10  2  1  0
M  RAD  2  12   2  22   2
M  END
>  <docking_score>  (3) 
-3.0870000000000002

$$$$
