
     RDKit          3D

 23 23  0  0  0  0  0  0  0  0999 V2000
   17.3920   -3.1119   -2.5310 C   0  0  0  0  0  0  0  0  0  0  0  0
   18.6288   -2.2598   -2.6303 C   0  0  1  0  0  0  0  0  0  0  0  0
   19.7349   -2.9355   -1.8436 C   0  0  0  0  0  0  0  0  0  0  0  0
   20.9589   -2.0451   -1.8089 C   0  0  2  0  0  0  0  0  0  0  0  0
   20.9911   -1.2411   -0.6716 O   0  0  0  0  0  0  0  0  0  0  0  0
   21.0249   -1.1609   -3.0449 C   0  0  2  0  0  0  0  0  0  0  0  0
   20.0915   -0.1280   -2.8553 O   0  0  0  0  0  0  0  0  0  0  0  0
   20.5317   -1.9852   -4.2121 C   0  0  1  0  0  0  0  0  0  0  0  0
   21.0489   -3.2783   -4.0795 O   0  0  0  0  0  0  0  0  0  0  0  0
   19.0152   -2.0771   -4.0822 C   0  0  1  0  0  0  0  0  0  0  0  0
   18.4875   -3.1432   -4.9010 N   0  0  0  0  0  0  0  0  0  0  0  0
   18.0210   -2.6460   -6.1577 C   0  0  0  0  0  3  0  0  0  0  0  0
   16.8775   -1.7016   -5.9532 C   0  0  0  0  0  0  0  0  0  0  0  0
   15.5239   -2.3559   -6.1617 C   0  0  2  0  0  0  0  0  0  0  0  0
   15.0737   -1.9480   -7.4097 O   0  0  0  0  0  0  0  0  0  0  0  0
   14.5934   -1.7782   -5.1288 C   0  0  0  0  0  0  0  0  0  0  0  0
   15.7049   -3.7138   -6.0615 O   0  0  0  0  0  0  0  0  0  0  0  0
   14.9594   -4.4673   -6.9416 C   0  0  1  0  0  0  0  0  0  0  0  0
   15.8447   -5.0154   -7.8980 O   0  0  0  0  0  0  0  0  0  0  0  0
   14.2424   -5.6187   -6.2812 C   0  0  2  0  0  0  0  0  0  0  0  0
   13.1632   -5.0812   -5.5813 O   0  0  0  0  0  0  0  0  0  0  0  0
   15.1263   -6.3191   -5.2712 C   0  0  0  0  0  3  0  0  0  0  0  0
   14.2962   -7.0660   -4.4094 O   0  0  0  0  0  0  0  0  0  0  0  0
  2  1  1  6
  2  3  1  0
  3  4  1  0
  4  5  1  1
  4  6  1  0
  6  7  1  1
  6  8  1  0
  8  9  1  1
  8 10  1  0
 10 11  1  6
 11 12  1  0
 12 13  1  0
 13 14  1  0
 14 15  1  0
 14 16  1  1
 14 17  1  0
 17 18  1  0
 18 19  1  6
 18 20  1  0
 20 21  1  1
 20 22  1  0
 22 23  1  0
 10  2  1  0
M  RAD  2  12   2  22   2
M  END
>  <docking_score>  (1) 
-4.0590000000000002

$$$$

     RDKit          3D

 23 23  0  0  0  0  0  0  0  0999 V2000
   16.4443   -6.0757   -8.6380 C   0  0  0  0  0  0  0  0  0  0  0  0
   16.9418   -6.7187   -7.3712 C   0  0  1  0  0  0  0  0  0  0  0  0
   18.3805   -6.2915   -7.1556 C   0  0  0  0  0  0  0  0  0  0  0  0
   18.9602   -7.0210   -5.9623 C   0  0  2  0  0  0  0  0  0  0  0  0
   19.6303   -8.1847   -6.3330 O   0  0  0  0  0  0  0  0  0  0  0  0
   17.8734   -7.3718   -4.9574 C   0  0  2  0  0  0  0  0  0  0  0  0
   17.1808   -8.4778   -5.4782 O   0  0  0  0  0  0  0  0  0  0  0  0
   16.8968   -6.2182   -4.9328 C   0  0  1  0  0  0  0  0  0  0  0  0
   17.6296   -5.0278   -4.9917 O   0  0  0  0  0  0  0  0  0  0  0  0
   16.0642   -6.3133   -6.2067 C   0  0  1  0  0  0  0  0  0  0  0  0
   15.3823   -5.0690   -6.4754 N   0  0  0  0  0  0  0  0  0  0  0  0
   14.9655   -4.4367   -5.2627 C   0  0  0  0  0  3  0  0  0  0  0  0
   14.3629   -3.0974   -5.5531 C   0  0  0  0  0  0  0  0  0  0  0  0
   14.9860   -1.9781   -4.7389 C   0  0  2  0  0  0  0  0  0  0  0  0
   13.9493   -1.1343   -4.3652 O   0  0  0  0  0  0  0  0  0  0  0  0
   15.8885   -1.2100   -5.6673 C   0  0  0  0  0  0  0  0  0  0  0  0
   15.6327   -2.5564   -3.6740 O   0  0  0  0  0  0  0  0  0  0  0  0
   16.5918   -1.7681   -3.0770 C   0  0  1  0  0  0  0  0  0  0  0  0
   16.1541   -1.4745   -1.7650 O   0  0  0  0  0  0  0  0  0  0  0  0
   17.9340   -2.4473   -2.9614 C   0  0  2  0  0  0  0  0  0  0  0  0
   18.3548   -2.2994   -1.6406 O   0  0  0  0  0  0  0  0  0  0  0  0
   18.9723   -1.7811   -3.8389 C   0  0  0  0  0  3  0  0  0  0  0  0
   20.2432   -2.2428   -3.4373 O   0  0  0  0  0  0  0  0  0  0  0  0
  2  1  1  6
  2  3  1  0
  3  4  1  0
  4  5  1  6
  4  6  1  0
  6  7  1  6
  6  8  1  0
  8  9  1  6
  8 10  1  0
 10 11  1  6
 11 12  1  0
 12 13  1  0
 13 14  1  0
 14 15  1  0
 14 16  1  6
 14 17  1  0
 17 18  1  0
 18 19  1  1
 18 20  1  0
 20 21  1  1
 20 22  1  0
 22 23  1  0
 10  2  1  0
M  RAD  2  12   2  22   2
M  END
>  <docking_score>  (2) 
-3.4940000000000002

$$$$

     RDKit          3D

 23 23  0  0  0  0  0  0  0  0999 V2000
   17.0723   -6.2274   -3.8850 C   0  0  0  0  0  0  0  0  0  0  0  0
   18.5497   -6.2331   -4.1731 C   0  0  1  0  0  0  0  0  0  0  0  0
   18.9837   -7.6684   -4.3979 C   0  0  0  0  0  0  0  0  0  0  0  0
   20.4875   -7.7313   -4.5609 C   0  0  2  0  0  0  0  0  0  0  0  0
   21.1357   -7.9938   -3.3560 O   0  0  0  0  0  0  0  0  0  0  0  0
   21.0273   -6.4340   -5.1435 C   0  0  2  0  0  0  0  0  0  0  0  0
   21.0360   -5.4932   -4.1001 O   0  0  0  0  0  0  0  0  0  0  0  0
   20.0210   -5.9470   -6.1610 C   0  0  1  0  0  0  0  0  0  0  0  0
   19.5554   -7.0558   -6.8761 O   0  0  0  0  0  0  0  0  0  0  0  0
   18.8439   -5.3708   -5.3816 C   0  0  1  0  0  0  0  0  0  0  0  0
   17.6786   -5.2376   -6.2240 N   0  0  0  0  0  0  0  0  0  0  0  0
   17.4391   -3.8689   -6.5608 C   0  0  0  0  0  3  0  0  0  0  0  0
   15.9871   -3.5395   -6.4044 C   0  0  0  0  0  0  0  0  0  0  0  0
   15.7265   -2.5100   -5.3199 C   0  0  2  0  0  0  0  0  0  0  0  0
   14.3481   -2.4070   -5.1932 O   0  0  0  0  0  0  0  0  0  0  0  0
   16.2380   -1.1910   -5.8348 C   0  0  0  0  0  0  0  0  0  0  0  0
   16.3502   -2.9501   -4.1780 O   0  0  0  0  0  0  0  0  0  0  0  0
   17.0631   -1.9884   -3.4962 C   0  0  1  0  0  0  0  0  0  0  0  0
   16.3769   -1.7163   -2.2903 O   0  0  0  0  0  0  0  0  0  0  0  0
   18.4585   -2.4293   -3.1295 C   0  0  2  0  0  0  0  0  0  0  0  0
   18.3804   -3.0333   -1.8755 O   0  0  0  0  0  0  0  0  0  0  0  0
   19.3989   -1.2499   -3.0000 C   0  0  0  0  0  3  0  0  0  0  0  0
   19.3954   -0.5531   -4.2263 O   0  0  0  0  0  0  0  0  0  0  0  0
  2  1  1  6
  2  3  1  0
  3  4  1  0
  4  5  1  1
  4  6  1  0
  6  7  1  1
  6  8  1  0
  8  9  1  1
  8 10  1  0
 10 11  1  6
 11 12  1  0
 12 13  1  0
 13 14  1  0
 14 15  1  0
 14 16  1  6
 14 17  1  0
 17 18  1  0
 18 19  1  1
 18 20  1  0
 20 21  1  1
 20 22  1  0
 22 23  1  0
 10  2  1  0
M  RAD  2  12   2  22   2
M  END
>  <docking_score>  (3) 
-3.4929999999999999

$$$$
