
     RDKit          3D

 25 25  0  0  0  0  0  0  0  0999 V2000
   19.3180   -3.8952   -8.6281 C   0  0  0  0  0  0  0  0  0  0  0  0
   18.6226   -4.3800   -7.3656 C   0  0  0  0  0  0  0  0  0  0  0  0
   19.5730   -5.2616   -6.5909 C   0  0  0  0  0  0  0  0  0  0  0  0
   18.2630   -3.1409   -6.5650 C   0  0  0  0  0  0  0  0  0  0  0  0
   17.6044   -2.1585   -7.4882 C   0  0  0  0  0  0  0  0  0  0  0  0
   16.5118   -1.4495   -6.7825 C   0  0  0  0  0  0  0  0  0  0  0  0
   15.6778   -2.2516   -5.8436 C   0  0  1  0  0  0  0  0  0  0  0  0
   14.6687   -1.2580   -5.2184 C   0  0  0  0  0  0  0  0  0  0  0  0
   14.8044   -3.2842   -6.5261 C   0  0  0  0  0  3  0  0  0  0  0  0
   14.2231   -4.3192   -5.6400 C   0  0  0  0  0  0  0  0  0  0  0  0
   14.1150   -5.6919   -6.2383 C   0  0  0  0  0  0  0  0  0  0  0  0
   15.1158   -6.5797   -5.5519 C   0  0  2  0  0  0  0  0  0  0  0  0
   14.4634   -7.4112   -4.4579 C   0  0  0  0  0  0  0  0  0  0  0  0
   16.3686   -5.9334   -5.1173 C   0  0  0  0  0  0  0  0  0  0  0  0
   16.7366   -6.1487   -3.6919 C   0  0  0  0  0  0  0  0  0  0  0  0
   16.8432   -4.8612   -2.9382 C   0  0  1  0  0  0  0  0  0  0  0  0
   16.2585   -4.9555   -1.5466 C   0  0  0  0  0  0  0  0  0  0  0  0
   18.1875   -4.2348   -2.9452 C   0  0  0  0  0  0  0  0  0  0  0  0
   18.2510   -2.8801   -2.3735 C   0  0  2  0  0  0  0  0  0  0  0  0
   17.2836   -1.8353   -2.7920 C   0  0  1  0  0  0  0  0  0  0  0  0
   16.2734   -1.3735   -1.7601 C   0  0  0  0  0  1  0  0  0  0  0  0
   18.3643   -0.9265   -2.9095 O   0  0  0  0  0  0  0  0  0  0  0  0
   19.1724   -1.9825   -3.2119 C   0  0  1  0  0  0  0  0  0  0  0  0
   20.5624   -1.9176   -2.6831 C   0  0  0  0  0  0  0  0  0  0  0  0
   21.3820   -2.6774   -3.1712 O   0  0  0  0  0  0  0  0  0  0  0  0
  1  2  1  0
  2  3  1  0
  2  4  1  0
  4  5  1  0
  5  6  1  0
  6  7  1  0
  7  8  1  6
  7  9  1  0
  9 10  1  0
 10 11  1  0
 11 12  1  0
 12 13  1  1
 12 14  1  0
 14 15  1  0
 15 16  1  0
 16 17  1  1
 16 18  1  0
 19 18  1  6
 19 20  1  0
 20 21  1  1
 20 22  1  0
 22 23  1  0
 23 24  1  1
 24 25  2  0
 23 19  1  0
M  RAD  2   9   2  21   2
M  END
>  <docking_score>  (1) 
-3.4670000000000001

$$$$

     RDKit          3D

 25 25  0  0  0  0  0  0  0  0999 V2000
   18.1916   -6.1742   -4.2444 C   0  0  0  0  0  0  0  0  0  0  0  0
   18.7188   -6.4351   -5.6467 C   0  0  0  0  0  0  0  0  0  0  0  0
   19.8476   -7.4352   -5.5670 C   0  0  0  0  0  0  0  0  0  0  0  0
   17.5581   -6.9954   -6.4496 C   0  0  0  0  0  0  0  0  0  0  0  0
   16.4863   -5.9479   -6.5216 C   0  0  0  0  0  0  0  0  0  0  0  0
   16.0882   -5.7221   -7.9305 C   0  0  0  0  0  0  0  0  0  0  0  0
   15.1314   -4.6109   -8.1954 C   0  0  1  0  0  0  0  0  0  0  0  0
   13.8414   -5.2803   -8.7284 C   0  0  0  0  0  0  0  0  0  0  0  0
   14.6792   -3.8787   -6.9486 C   0  0  0  0  0  3  0  0  0  0  0  0
   15.0903   -2.4587   -6.8541 C   0  0  0  0  0  0  0  0  0  0  0  0
   16.4712   -2.1535   -7.3582 C   0  0  0  0  0  0  0  0  0  0  0  0
   17.3547   -1.8949   -6.1693 C   0  0  2  0  0  0  0  0  0  0  0  0
   18.4592   -2.9351   -6.0606 C   0  0  0  0  0  0  0  0  0  0  0  0
   16.6661   -1.6468   -4.8886 C   0  0  0  0  0  0  0  0  0  0  0  0
   16.3004   -2.8637   -4.1146 C   0  0  0  0  0  0  0  0  0  0  0  0
   16.6607   -2.7393   -2.6682 C   0  0  1  0  0  0  0  0  0  0  0  0
   16.8322   -4.0838   -1.9973 C   0  0  0  0  0  0  0  0  0  0  0  0
   17.7816   -1.8137   -2.3742 C   0  0  0  0  0  0  0  0  0  0  0  0
   19.1132   -2.2935   -2.7776 C   0  0  2  0  0  0  0  0  0  0  0  0
   20.0314   -2.9038   -1.7841 C   0  0  1  0  0  0  0  0  0  0  0  0
   20.3193   -4.3855   -1.9257 C   0  0  0  0  0  1  0  0  0  0  0  0
   21.0807   -2.1137   -2.3156 O   0  0  0  0  0  0  0  0  0  0  0  0
   20.1534   -1.1713   -2.6496 C   0  0  1  0  0  0  0  0  0  0  0  0
   20.3875   -0.4446   -3.9275 C   0  0  0  0  0  0  0  0  0  0  0  0
   19.5245    0.3360   -4.2926 O   0  0  0  0  0  0  0  0  0  0  0  0
  1  2  1  0
  2  3  1  0
  2  4  1  0
  4  5  1  0
  5  6  1  0
  6  7  1  0
  7  8  1  1
  7  9  1  0
  9 10  1  0
 10 11  1  0
 11 12  1  0
 12 13  1  1
 12 14  1  0
 14 15  1  0
 15 16  1  0
 16 17  1  6
 16 18  1  0
 19 18  1  1
 19 20  1  0
 20 21  1  6
 20 22  1  0
 22 23  1  0
 23 24  1  6
 24 25  2  0
 23 19  1  0
M  RAD  2   9   2  21   2
M  END
>  <docking_score>  (2) 
-2.9860000000000002

$$$$
