
     RDKit          3D

 29 28  0  0  0  0  0  0  0  0999 V2000
   17.4866   -9.0406   -6.1742 C   0  0  0  0  0  0  0  0  0  0  0  0
   18.7125   -9.0912   -6.9844 C   0  0  0  0  0  0  0  0  0  0  0  0
   18.4737   -9.3624   -8.4127 C   0  0  0  0  0  0  0  0  0  0  0  0
   19.7367   -8.1280   -6.5894 C   0  0  0  0  0  0  0  0  0  0  0  0
   19.2681   -6.8347   -6.0301 C   0  0  0  0  0  0  0  0  0  0  0  0
   18.8847   -5.7829   -7.0089 C   0  0  0  0  0  0  0  0  0  0  0  0
   20.0049   -4.8694   -7.3745 C   0  0  1  0  0  0  0  0  0  0  0  0
   20.5520   -5.1579   -8.7397 C   0  0  0  0  0  0  0  0  0  0  0  0
   19.7763   -3.4454   -7.1579 C   0  0  0  0  0  3  0  0  0  0  0  0
   18.5322   -2.7952   -7.4878 C   0  0  0  0  0  0  0  0  0  0  0  0
   17.9373   -1.7484   -6.6537 C   0  0  0  0  0  0  0  0  0  0  0  0
   17.6873   -2.0289   -5.2328 C   0  0  2  0  0  0  0  0  0  0  0  0
   16.5224   -1.1448   -4.7648 C   0  0  0  0  0  0  0  0  0  0  0  0
   15.2414   -1.9640   -4.7229 C   0  0  0  0  0  3  0  0  0  0  0  0
   14.3412   -1.4493   -5.8176 C   0  0  0  0  0  0  0  0  0  0  0  0
   14.2580    0.0642   -5.7180 C   0  0  0  0  0  0  0  0  0  0  0  0
   12.8627    0.5131   -6.0667 C   0  0  0  0  0  0  0  0  0  0  0  0
   18.7845   -1.8333   -4.2791 C   0  0  0  0  0  0  0  0  0  0  0  0
   19.3432   -2.9563   -3.5771 C   0  0  0  0  0  0  0  0  0  0  0  0
   20.6628   -2.9161   -2.9583 C   0  0  0  0  0  3  0  0  0  0  0  0
   20.7800   -3.5080   -1.5957 C   0  0  0  0  0  0  0  0  0  0  0  0
   21.3811   -4.8918   -1.7339 C   0  0  0  0  0  0  0  0  0  0  0  0
   20.8330   -5.6412   -2.9228 C   0  0  0  0  0  0  0  0  0  0  0  0
   19.5685   -6.3825   -2.5546 C   0  0  0  0  0  0  0  0  0  0  0  0
   18.3537   -5.5463   -2.9078 C   0  0  1  0  0  0  0  0  0  0  0  0
   17.5127   -6.3056   -3.9141 C   0  0  0  0  0  0  0  0  0  0  0  0
   17.5251   -5.3573   -1.7576 O   0  0  0  0  0  0  0  0  0  0  0  0
   16.7052   -4.2512   -1.7245 C   0  0  0  0  0  0  0  0  0  0  0  0
   16.3769   -3.7614   -0.6129 O   0  0  0  0  0  0  0  0  0  0  0  0
  1  2  1  0
  2  3  1  0
  2  4  1  0
  4  5  1  0
  5  6  1  0
  6  7  1  0
  7  8  1  6
  7  9  1  0
  9 10  1  0
 10 11  1  0
 12 11  1  6
 12 13  1  0
 13 14  1  0
 14 15  1  0
 15 16  1  0
 16 17  1  0
 12 18  1  0
 18 19  1  0
 19 20  1  0
 20 21  1  0
 21 22  1  0
 22 23  1  0
 23 24  1  0
 24 25  1  0
 25 26  1  6
 25 27  1  0
 27 28  1  0
 28 29  2  0
M  RAD  3   9   2  14   2  20   2
M  END
>  <docking_score>  (1) 
-1.107

$$$$

     RDKit          3D

 29 28  0  0  0  0  0  0  0  0999 V2000
    6.9020    8.5553    5.6640 C   0  0  0  0  0  0  0  0  0  0  0  0
    5.8000    8.6834    4.6992 C   0  0  0  0  0  0  0  0  0  0  0  0
    4.7565    7.6535    4.8441 C   0  0  0  0  0  0  0  0  0  0  0  0
    5.4234   10.0609    4.3933 C   0  0  0  0  0  0  0  0  0  0  0  0
    4.4050   10.6934    5.2695 C   0  0  0  0  0  0  0  0  0  0  0  0
    4.7285   10.7761    6.7186 C   0  0  0  0  0  0  0  0  0  0  0  0
    3.5617   10.5099    7.6078 C   0  0  1  0  0  0  0  0  0  0  0  0
    2.6111    9.5136    7.0163 C   0  0  0  0  0  0  0  0  0  0  0  0
    3.8646   10.2256    9.0059 C   0  0  0  0  0  3  0  0  0  0  0  0
    3.6065   11.1665   10.0677 C   0  0  0  0  0  0  0  0  0  0  0  0
    3.3304   10.7535   11.4455 C   0  0  0  0  0  0  0  0  0  0  0  0
    3.6820   11.6644   12.5441 C   0  0  2  0  0  0  0  0  0  0  0  0
    4.0354   13.0319   11.9420 C   0  0  0  0  0  0  0  0  0  0  0  0
    5.5163   13.0732   11.5971 C   0  0  0  0  0  3  0  0  0  0  0  0
    5.8630   14.5037   11.2695 C   0  0  0  0  0  0  0  0  0  0  0  0
    7.1564   14.8725   11.9754 C   0  0  0  0  0  0  0  0  0  0  0  0
    7.8303   15.9961   11.2314 C   0  0  0  0  0  0  0  0  0  0  0  0
    4.7852   11.2899   13.4354 C   0  0  0  0  0  0  0  0  0  0  0  0
    5.2198   12.1901   14.4683 C   0  0  0  0  0  0  0  0  0  0  0  0
    4.3401   12.6322   15.5437 C   0  0  0  0  0  3  0  0  0  0  0  0
    3.9438   14.0688   15.5347 C   0  0  0  0  0  0  0  0  0  0  0  0
    3.6410   14.4823   16.9604 C   0  0  0  0  0  0  0  0  0  0  0  0
    4.3047   13.5832   17.9737 C   0  0  0  0  0  0  0  0  0  0  0  0
    4.9548   14.3961   19.0694 C   0  0  0  0  0  0  0  0  0  0  0  0
    6.4610   14.2281   19.0180 C   0  0  1  0  0  0  0  0  0  0  0  0
    7.0209   15.1552   17.9581 C   0  0  0  0  0  0  0  0  0  0  0  0
    7.0520   14.6342   20.2553 O   0  0  0  0  0  0  0  0  0  0  0  0
    8.1959   15.3996   20.2066 C   0  0  0  0  0  0  0  0  0  0  0  0
    8.4469   16.0660   19.1691 O   0  0  0  0  0  0  0  0  0  0  0  0
  1  2  1  0
  2  3  1  0
  2  4  1  0
  4  5  1  0
  5  6  1  0
  6  7  1  0
  7  8  1  6
  7  9  1  0
  9 10  1  0
 10 11  1  0
 12 11  1  6
 12 13  1  0
 13 14  1  0
 14 15  1  0
 15 16  1  0
 16 17  1  0
 12 18  1  0
 18 19  1  0
 19 20  1  0
 20 21  1  0
 21 22  1  0
 22 23  1  0
 23 24  1  0
 24 25  1  0
 25 26  1  6
 25 27  1  0
 27 28  1  0
 28 29  2  0
M  RAD  3   9   2  14   2  20   2
M  END
>  <docking_score>  (2) 
-0.73199999999999998

$$$$

     RDKit          3D

 29 28  0  0  0  0  0  0  0  0999 V2000
    7.1366    1.4184   -4.9901 C   0  0  0  0  0  0  0  0  0  0  0  0
    7.0453   -0.0315   -5.2164 C   0  0  0  0  0  0  0  0  0  0  0  0
    6.5624   -0.3973   -6.5594 C   0  0  0  0  0  0  0  0  0  0  0  0
    8.1133   -0.8078   -4.5922 C   0  0  0  0  0  0  0  0  0  0  0  0
    9.4952   -0.2791   -4.7187 C   0  0  0  0  0  0  0  0  0  0  0  0
   10.4154   -0.5344   -3.5787 C   0  0  0  0  0  0  0  0  0  0  0  0
   11.7771   -0.9749   -3.9966 C   0  0  1  0  0  0  0  0  0  0  0  0
   11.7322   -2.0601   -5.0293 C   0  0  0  0  0  0  0  0  0  0  0  0
   12.7218    0.0812   -4.3422 C   0  0  0  0  0  3  0  0  0  0  0  0
   14.1425   -0.1443   -4.4434 C   0  0  0  0  0  0  0  0  0  0  0  0
   14.8285   -0.3271   -5.7245 C   0  0  0  0  0  0  0  0  0  0  0  0
   15.5120   -1.6012   -5.9888 C   0  0  2  0  0  0  0  0  0  0  0  0
   15.3456   -2.5021   -4.7565 C   0  0  0  0  0  0  0  0  0  0  0  0
   14.5518   -3.7439   -5.1325 C   0  0  0  0  0  3  0  0  0  0  0  0
   14.8370   -4.0389   -6.5835 C   0  0  0  0  0  0  0  0  0  0  0  0
   14.9733   -5.5409   -6.7647 C   0  0  0  0  0  0  0  0  0  0  0  0
   14.8577   -6.2196   -5.4246 C   0  0  0  0  0  0  0  0  0  0  0  0
   16.9433   -1.5722   -6.3091 C   0  0  0  0  0  0  0  0  0  0  0  0
   17.8842   -1.0208   -5.3729 C   0  0  0  0  0  0  0  0  0  0  0  0
   19.2970   -0.8500   -5.6903 C   0  0  0  0  0  3  0  0  0  0  0  0
   20.1581   -2.0611   -5.5780 C   0  0  0  0  0  0  0  0  0  0  0  0
   21.0340   -1.9036   -4.3518 C   0  0  0  0  0  0  0  0  0  0  0  0
   21.1847   -3.1927   -3.5829 C   0  0  0  0  0  0  0  0  0  0  0  0
   20.1352   -4.1954   -4.0035 C   0  0  0  0  0  0  0  0  0  0  0  0
   19.2646   -4.5654   -2.8184 C   0  0  1  0  0  0  0  0  0  0  0  0
   19.7152   -3.7671   -1.6118 C   0  0  0  0  0  0  0  0  0  0  0  0
   17.9057   -4.1905   -3.0597 O   0  0  0  0  0  0  0  0  0  0  0  0
   16.9126   -4.9333   -2.4608 C   0  0  0  0  0  0  0  0  0  0  0  0
   16.2845   -4.4478   -1.4845 O   0  0  0  0  0  0  0  0  0  0  0  0
  1  2  1  0
  2  3  1  0
  2  4  1  0
  4  5  1  0
  5  6  1  0
  6  7  1  0
  7  8  1  6
  7  9  1  0
  9 10  1  0
 10 11  1  0
 12 11  1  1
 12 13  1  0
 13 14  1  0
 14 15  1  0
 15 16  1  0
 16 17  1  0
 12 18  1  0
 18 19  1  0
 19 20  1  0
 20 21  1  0
 21 22  1  0
 22 23  1  0
 23 24  1  0
 24 25  1  0
 25 26  1  1
 25 27  1  0
 27 28  1  0
 28 29  2  0
M  RAD  3   9   2  14   2  20   2
M  END
>  <docking_score>  (3) 
-0.083000000000000004

$$$$
