
     RDKit          3D

 24 25  0  0  0  0  0  0  0  0999 V2000
    7.7586   -1.3072   18.6236 C   0  0  0  0  0  0  0  0  0  0  0  0
    9.0999   -1.8334   19.1179 C   0  0  1  0  0  0  0  0  0  0  0  0
   10.1241   -1.1746   18.3711 N   0  0  0  0  0  0  0  0  0  0  0  0
   11.4533   -1.6695   18.6510 C   0  0  0  0  0  0  0  0  0  0  0  0
   11.7559   -1.7062   20.1279 C   0  0  0  0  0  0  0  0  0  0  0  0
   10.6263   -2.1124   20.9879 C   0  0  0  0  0  0  0  0  0  0  0  0
    9.2780   -1.5756   20.5883 C   0  0  2  0  0  0  0  0  0  0  0  0
    8.1737   -2.2688   21.3180 C   0  0  0  0  0  0  0  0  0  0  0  0
    8.5442   -2.8974   22.5438 N   0  0  0  0  0  0  0  0  0  0  0  0
    7.7258   -2.9218   23.7071 C   0  0  0  0  0  0  0  0  0  0  0  0
    7.1952   -1.8208   24.1866 C   0  0  0  0  0  0  0  0  0  0  0  0
    6.3521   -1.8104   25.3753 C   0  0  0  0  0  0  0  0  0  0  0  0
    5.9909   -0.6675   25.9373 C   0  0  0  0  0  0  0  0  0  0  0  0
    6.4483    0.5925   25.3517 C   0  0  0  0  0  0  0  0  0  0  0  0
    6.2659    1.7204   25.9913 C   0  0  0  0  0  0  0  0  0  0  0  0
    9.1911   -0.0822   20.8687 C   0  0  0  0  0  0  0  0  0  0  0  0
    7.7635    0.2629   21.2486 C   0  0  0  0  0  0  0  0  0  0  0  0
    9.5359    0.7358   19.6635 C   0  0  0  0  0  0  0  0  0  0  0  0
   10.1586    0.2127   21.9804 C   0  0  0  0  0  0  0  0  0  0  0  0
   10.2746    1.6532   22.2461 C   0  0  0  0  0  0  0  0  0  0  0  0
    9.1925    2.5554   22.3343 N   0  0  0  0  0  0  0  0  0  0  0  0
    9.6518    3.8376   22.1539 O   0  0  0  0  0  0  0  0  0  0  0  0
   10.9629    3.7655   22.6708 C   0  0  0  0  0  0  0  0  0  0  0  0
   11.3479    2.3708   22.4480 N   0  0  0  0  0  0  0  0  0  0  0  0
  2  1  1  6
  2  3  1  0
  3  4  1  0
  4  5  1  0
  5  6  1  0
  6  7  1  0
  7  8  1  1
  8  9  1  0
  9 10  1  0
 10 11  2  3
 11 12  1  0
 12 13  2  3
 13 14  1  0
 14 15  2  0
  7 16  1  0
 16 17  1  0
 16 18  1  0
 16 19  1  0
 19 20  1  0
 20 21  1  0
 21 22  1  0
 22 23  1  0
 23 24  1  0
  7  2  1  0
 20 24  2  0
M  END
>  <docking_score>  (1) 
-5.6699999999999999

$$$$

     RDKit          3D

 24 25  0  0  0  0  0  0  0  0999 V2000
   11.3489    1.1851   22.9187 C   0  0  0  0  0  0  0  0  0  0  0  0
    9.9749    0.7270   23.3903 C   0  0  1  0  0  0  0  0  0  0  0  0
    9.1555    1.8891   23.5270 N   0  0  0  0  0  0  0  0  0  0  0  0
    7.8521    1.6150   24.0893 C   0  0  0  0  0  0  0  0  0  0  0  0
    7.1401    0.4937   23.3750 C   0  0  0  0  0  0  0  0  0  0  0  0
    8.0046   -0.6250   22.9488 C   0  0  0  0  0  0  0  0  0  0  0  0
    9.3570   -0.2357   22.4148 C   0  0  2  0  0  0  0  0  0  0  0  0
   10.2608   -1.4196   22.2955 C   0  0  0  0  0  0  0  0  0  0  0  0
    9.6308   -2.6922   22.4313 N   0  0  0  0  0  0  0  0  0  0  0  0
    9.5141   -3.6411   21.3779 C   0  0  0  0  0  0  0  0  0  0  0  0
   10.4904   -3.8259   20.5199 C   0  0  0  0  0  0  0  0  0  0  0  0
   10.4040   -4.7896   19.4300 C   0  0  0  0  0  0  0  0  0  0  0  0
   10.9220   -4.5153   18.2431 C   0  0  0  0  0  0  0  0  0  0  0  0
   11.5857   -3.2287   18.0333 C   0  0  0  0  0  0  0  0  0  0  0  0
   11.9150   -2.8469   16.8248 C   0  0  0  0  0  0  0  0  0  0  0  0
    9.2248    0.4216   21.0484 C   0  0  0  0  0  0  0  0  0  0  0  0
   10.3699   -0.0428   20.1683 C   0  0  0  0  0  0  0  0  0  0  0  0
    9.3116    1.9135   21.1330 C   0  0  0  0  0  0  0  0  0  0  0  0
    7.8871    0.0180   20.4948 C   0  0  0  0  0  0  0  0  0  0  0  0
    7.9926   -0.5298   19.1355 C   0  0  0  0  0  0  0  0  0  0  0  0
    7.9275    0.2259   17.9449 N   0  0  0  0  0  0  0  0  0  0  0  0
    7.6242   -0.6046   16.8934 O   0  0  0  0  0  0  0  0  0  0  0  0
    8.2061   -1.8261   17.2943 C   0  0  0  0  0  0  0  0  0  0  0  0
    8.1612   -1.7689   18.7564 N   0  0  0  0  0  0  0  0  0  0  0  0
  2  1  1  6
  2  3  1  0
  3  4  1  0
  4  5  1  0
  5  6  1  0
  6  7  1  0
  7  8  1  6
  8  9  1  0
  9 10  1  0
 10 11  2  3
 11 12  1  0
 12 13  2  3
 13 14  1  0
 14 15  2  0
  7 16  1  0
 16 17  1  0
 16 18  1  0
 16 19  1  0
 19 20  1  0
 20 21  1  0
 21 22  1  0
 22 23  1  0
 23 24  1  0
  7  2  1  0
 20 24  2  0
M  END
>  <docking_score>  (2) 
-5.2839999999999998

$$$$

     RDKit          3D

 24 25  0  0  0  0  0  0  0  0999 V2000
    8.0760   -1.3278   21.7321 C   0  0  0  0  0  0  0  0  0  0  0  0
    9.4460   -1.7865   22.2148 C   0  0  1  0  0  0  0  0  0  0  0  0
    9.5105   -3.2037   22.0481 N   0  0  0  0  0  0  0  0  0  0  0  0
   10.7167   -3.7948   22.5828 C   0  0  0  0  0  0  0  0  0  0  0  0
   11.9641   -3.1035   22.0923 C   0  0  0  0  0  0  0  0  0  0  0  0
   11.8589   -1.6357   21.9701 C   0  0  0  0  0  0  0  0  0  0  0  0
   10.5482   -1.1189   21.4404 C   0  0  2  0  0  0  0  0  0  0  0  0
   10.4227    0.3575   21.6336 C   0  0  0  0  0  0  0  0  0  0  0  0
   11.2360    0.9156   22.6641 N   0  0  0  0  0  0  0  0  0  0  0  0
   11.3157    2.3064   22.9523 C   0  0  0  0  0  0  0  0  0  0  0  0
   10.4560    3.1559   22.4398 C   0  0  0  0  0  0  0  0  0  0  0  0
   10.5087    4.5862   22.7147 C   0  0  0  0  0  0  0  0  0  0  0  0
    9.9334    5.4530   21.8961 C   0  0  0  0  0  0  0  0  0  0  0  0
    9.2404    4.9601   20.7059 C   0  0  0  0  0  0  0  0  0  0  0  0
    9.5122    5.4658   19.5291 C   0  0  0  0  0  0  0  0  0  0  0  0
   10.4072   -1.4344   19.9582 C   0  0  0  0  0  0  0  0  0  0  0  0
    9.9239   -0.1909   19.2361 C   0  0  0  0  0  0  0  0  0  0  0  0
    9.3968   -2.5099   19.7073 C   0  0  0  0  0  0  0  0  0  0  0  0
   11.7585   -1.8798   19.4738 C   0  0  0  0  0  0  0  0  0  0  0  0
   11.6609   -2.9022   18.4231 C   0  0  0  0  0  0  0  0  0  0  0  0
   11.4959   -2.6420   17.0454 N   0  0  0  0  0  0  0  0  0  0  0  0
   11.0140   -3.7679   16.4230 O   0  0  0  0  0  0  0  0  0  0  0  0
   11.5644   -4.8057   17.2050 C   0  0  0  0  0  0  0  0  0  0  0  0
   11.7044   -4.2037   18.5320 N   0  0  0  0  0  0  0  0  0  0  0  0
  2  1  1  6
  2  3  1  0
  3  4  1  0
  4  5  1  0
  5  6  1  0
  6  7  1  0
  7  8  1  6
  8  9  1  0
  9 10  1  0
 10 11  2  3
 11 12  1  0
 12 13  2  3
 13 14  1  0
 14 15  2  0
  7 16  1  0
 16 17  1  0
 16 18  1  0
 16 19  1  0
 19 20  1  0
 20 21  1  0
 21 22  1  0
 22 23  1  0
 23 24  1  0
  7  2  1  0
 20 24  2  0
M  END
>  <docking_score>  (3) 
-4.867

$$$$
