
     RDKit          3D

 37 37  0  0  0  0  0  0  0  0999 V2000
   21.2064    7.2005   -7.0127 C   0  0  0  0  0  0  0  0  0  0  0  0
   19.7302    7.1006   -7.2963 C   0  0  0  0  0  0  0  0  0  0  0  0
   19.1705    8.3466   -7.9308 C   0  0  0  0  0  0  0  0  0  0  0  0
   18.9283    6.6163   -6.1326 C   0  0  0  0  0  0  0  0  0  0  0  0
   19.6747    5.6469   -5.2485 C   0  0  0  0  0  0  0  0  0  0  0  0
   18.9365    4.3164   -5.3224 C   0  0  0  0  0  0  0  0  0  0  0  0
   19.2459    3.7160   -6.6777 C   0  0  1  0  0  0  0  0  0  0  0  0
   20.7277    3.4093   -6.6961 C   0  0  0  0  0  0  0  0  0  0  0  0
   18.5084    2.4111   -6.8891 C   0  0  0  0  0  3  0  0  0  0  0  0
   18.8790    1.4800   -5.7585 C   0  0  0  0  0  0  0  0  0  0  0  0
   17.6354    0.7301   -5.3323 C   0  0  0  0  0  0  0  0  0  0  0  0
   17.7075   -0.7305   -5.6861 C   0  0  2  0  0  0  0  0  0  0  0  0
   16.5304   -1.1678   -6.5332 C   0  0  0  0  0  0  0  0  0  0  0  0
   17.7748   -1.6112   -4.4577 C   0  0  0  0  0  3  0  0  0  0  0  0
   18.9659   -1.2286   -3.6063 C   0  0  0  0  0  0  0  0  0  0  0  0
   18.5534   -1.2597   -2.1645 C   0  0  1  0  0  0  0  0  0  0  0  0
   17.0582   -1.4535   -2.0419 C   0  0  0  0  0  0  0  0  0  0  0  0
   19.2729   -2.3852   -1.4567 C   0  0  0  0  0  0  0  0  0  0  0  0
   20.7681   -2.0937   -1.5458 C   0  0  0  0  0  0  0  0  0  0  0  0
   21.3420   -3.0829   -2.5292 C   0  0  0  0  0  0  0  0  0  0  0  0
   20.3181   -4.0980   -2.9836 C   0  0  0  0  0  0  0  0  0  0  0  0
   21.0254   -5.4551   -2.9676 C   0  0  0  0  0  0  0  0  0  0  0  0
   20.0287   -6.4709   -3.4359 C   0  0  0  0  0  0  0  0  0  0  0  0
   20.7650   -7.6893   -3.9567 C   0  0  0  0  0  0  0  0  0  0  0  0
   19.8858   -8.2983   -5.0553 C   0  0  0  0  0  3  0  0  0  0  0  0
   20.0259   -7.4594   -6.3253 C   0  0  1  0  0  0  0  0  0  0  0  0
   21.2603   -7.9081   -7.0785 C   0  0  0  0  0  0  0  0  0  0  0  0
   18.9264   -7.7132   -7.1120 O   0  0  0  0  0  0  0  0  0  0  0  0
   17.8730   -6.8450   -6.9181 C   0  0  0  0  0  0  0  0  0  0  0  0
   18.2418   -5.4844   -6.7437 C   0  0  2  0  0  0  0  0  0  0  0  0
   18.1181   -4.3282   -5.9386 C   0  0  0  0  0  0  0  0  0  0  0  0
   17.1102   -4.4811   -7.0341 C   0  0  1  0  0  0  0  0  0  0  0  0
   17.3042   -3.7159   -8.3213 C   0  0  0  0  0  1  0  0  0  0  0  0
   15.6989   -4.7056   -6.6254 C   0  0  0  0  0  0  0  0  0  0  0  0
   14.6315   -3.9745   -7.2903 C   0  0  0  0  0  3  0  0  0  0  0  0
   13.2183   -4.2212   -7.0336 C   0  0  0  0  0  0  0  0  0  0  0  0
   12.7674   -3.5985   -5.8942 F   0  0  0  0  0  0  0  0  0  0  0  0
  1  2  1  0
  2  3  1  0
  2  4  1  0
  4  5  1  0
  5  6  1  0
  6  7  1  0
  7  8  1  1
  7  9  1  0
  9 10  1  0
 10 11  1  0
 11 12  1  0
 12 13  1  1
 12 14  1  0
 14 15  1  0
 15 16  1  0
 16 17  1  6
 16 18  1  0
 18 19  1  0
 19 20  1  0
 20 21  1  0
 21 22  1  0
 22 23  1  0
 23 24  1  0
 24 25  1  0
 25 26  1  0
 26 27  1  6
 26 28  1  0
 28 29  1  0
 30 29  1  1
 30 31  1  0
 31 32  1  0
 32 33  1  6
 32 34  1  0
 34 35  1  0
 35 36  1  0
 36 37  1  0
 32 30  1  0
M  RAD  5   9   2  14   2  25   2  33   2  35   2
M  END
>  <docking_score>  (1) 
3.3620000000000001

$$$$

     RDKit          3D

 37 37  0  0  0  0  0  0  0  0999 V2000
    2.3151   14.8404   13.2636 C   0  0  0  0  0  0  0  0  0  0  0  0
    3.6798   14.4507   13.7688 C   0  0  0  0  0  0  0  0  0  0  0  0
    3.7315   14.3128   15.2678 C   0  0  0  0  0  0  0  0  0  0  0  0
    4.7857   15.2864   13.2118 C   0  0  0  0  0  0  0  0  0  0  0  0
    5.1031   14.9807   11.7682 C   0  0  0  0  0  0  0  0  0  0  0  0
    3.8189   14.4700   11.1273 C   0  0  0  0  0  0  0  0  0  0  0  0
    4.1518   14.1216    9.6917 C   0  0  1  0  0  0  0  0  0  0  0  0
    5.5884   13.6463    9.6752 C   0  0  0  0  0  0  0  0  0  0  0  0
    3.2908   12.9861    9.1813 C   0  0  0  0  0  3  0  0  0  0  0  0
    4.2051   11.9441    8.5804 C   0  0  0  0  0  0  0  0  0  0  0  0
    5.0326   11.3382    9.6934 C   0  0  0  0  0  0  0  0  0  0  0  0
    4.2161   10.4341   10.5765 C   0  0  2  0  0  0  0  0  0  0  0  0
    2.7612   10.3941   10.1568 C   0  0  0  0  0  0  0  0  0  0  0  0
    4.2902   10.8412   12.0318 C   0  0  0  0  0  3  0  0  0  0  0  0
    5.2991    9.9823   12.7629 C   0  0  0  0  0  0  0  0  0  0  0  0
    4.6533    8.6727   13.1059 C   0  0  1  0  0  0  0  0  0  0  0  0
    3.1474    8.8129   13.1373 C   0  0  0  0  0  0  0  0  0  0  0  0
    5.0469    7.6313   12.0831 C   0  0  0  0  0  0  0  0  0  0  0  0
    3.7676    7.1708   11.3904 C   0  0  0  0  0  0  0  0  0  0  0  0
    4.1932    6.4335   10.1453 C   0  0  0  0  0  0  0  0  0  0  0  0
    3.0146    5.8870    9.3725 C   0  0  0  0  0  0  0  0  0  0  0  0
    3.5182    5.6300    7.9503 C   0  0  0  0  0  0  0  0  0  0  0  0
    2.3138    5.3376    7.1084 C   0  0  0  0  0  0  0  0  0  0  0  0
    2.7616    4.9691    5.7078 C   0  0  0  0  0  0  0  0  0  0  0  0
    3.9240    5.9053    5.3570 C   0  0  0  0  0  3  0  0  0  0  0  0
    3.4504    6.9144    4.3112 C   0  0  1  0  0  0  0  0  0  0  0  0
    2.2820    6.3241    3.5506 C   0  0  0  0  0  0  0  0  0  0  0  0
    3.0063    8.0292    4.9836 O   0  0  0  0  0  0  0  0  0  0  0  0
    3.0649    9.1974    4.2535 C   0  0  0  0  0  0  0  0  0  0  0  0
    3.3829   10.3594    5.0059 C   0  0  2  0  0  0  0  0  0  0  0  0
    3.1904   11.7529    5.1519 C   0  0  0  0  0  0  0  0  0  0  0  0
    4.3404   11.3316    4.2920 C   0  0  1  0  0  0  0  0  0  0  0  0
    5.7331   11.3369    4.8754 C   0  0  0  0  0  1  0  0  0  0  0  0
    4.2488   11.6461    2.8422 C   0  0  0  0  0  0  0  0  0  0  0  0
    5.1793   11.0275    1.9108 C   0  0  0  0  0  3  0  0  0  0  0  0
    6.4120   11.6700    1.4730 C   0  0  0  0  0  0  0  0  0  0  0  0
    6.1884   12.8436    0.7934 F   0  0  0  0  0  0  0  0  0  0  0  0
  1  2  1  0
  2  3  1  0
  2  4  1  0
  4  5  1  0
  5  6  1  0
  6  7  1  0
  7  8  1  1
  7  9  1  0
  9 10  1  0
 10 11  1  0
 11 12  1  0
 12 13  1  6
 12 14  1  0
 14 15  1  0
 15 16  1  0
 16 17  1  6
 16 18  1  0
 18 19  1  0
 19 20  1  0
 20 21  1  0
 21 22  1  0
 22 23  1  0
 23 24  1  0
 24 25  1  0
 25 26  1  0
 26 27  1  1
 26 28  1  0
 28 29  1  0
 30 29  1  6
 30 31  1  0
 31 32  1  0
 32 33  1  1
 32 34  1  0
 34 35  1  0
 35 36  1  0
 36 37  1  0
 32 30  1  0
M  RAD  5   9   2  14   2  25   2  33   2  35   2
M  END
>  <docking_score>  (2) 
4.585

$$$$

     RDKit          3D

 37 37  0  0  0  0  0  0  0  0999 V2000
   18.1432    2.9465   -5.9345 C   0  0  0  0  0  0  0  0  0  0  0  0
   19.3222    3.7472   -5.4461 C   0  0  0  0  0  0  0  0  0  0  0  0
   19.6238    4.9368   -6.3193 C   0  0  0  0  0  0  0  0  0  0  0  0
   20.5251    2.9160   -5.1402 C   0  0  0  0  0  0  0  0  0  0  0  0
   20.1898    1.5229   -4.6657 C   0  0  0  0  0  0  0  0  0  0  0  0
   20.6809    1.4109   -3.2280 C   0  0  0  0  0  0  0  0  0  0  0  0
   21.3344    0.0517   -3.0908 C   0  0  1  0  0  0  0  0  0  0  0  0
   20.9885   -0.4665   -1.7117 C   0  0  0  0  0  0  0  0  0  0  0  0
   20.7839   -0.9342   -4.0989 C   0  0  0  0  0  3  0  0  0  0  0  0
   20.9806   -2.3252   -3.5429 C   0  0  0  0  0  0  0  0  0  0  0  0
   20.1727   -3.2917   -4.3817 C   0  0  0  0  0  0  0  0  0  0  0  0
   19.3034   -4.1829   -3.5368 C   0  0  2  0  0  0  0  0  0  0  0  0
   20.0855   -4.8477   -2.4230 C   0  0  0  0  0  0  0  0  0  0  0  0
   18.6203   -5.2552   -4.3570 C   0  0  0  0  0  3  0  0  0  0  0  0
   19.4796   -5.6300   -5.5450 C   0  0  0  0  0  0  0  0  0  0  0  0
   18.8027   -5.1515   -6.7950 C   0  0  1  0  0  0  0  0  0  0  0  0
   19.8078   -4.5354   -7.7430 C   0  0  0  0  0  0  0  0  0  0  0  0
   18.1098   -6.3126   -7.4712 C   0  0  0  0  0  0  0  0  0  0  0  0
   16.6074   -6.0661   -7.3673 C   0  0  0  0  0  0  0  0  0  0  0  0
   16.1961   -6.4913   -5.9798 C   0  0  0  0  0  0  0  0  0  0  0  0
   15.4123   -5.4172   -5.2607 C   0  0  0  0  0  0  0  0  0  0  0  0
   15.6216   -4.1284   -6.0592 C   0  0  0  0  0  0  0  0  0  0  0  0
   14.4343   -3.2540   -5.7933 C   0  0  0  0  0  0  0  0  0  0  0  0
   14.4104   -2.1242   -6.8036 C   0  0  0  0  0  0  0  0  0  0  0  0
   13.3935   -1.0975   -6.2913 C   0  0  0  0  0  3  0  0  0  0  0  0
   13.8063   -0.6463   -4.8905 C   0  0  1  0  0  0  0  0  0  0  0  0
   12.5615   -0.3439   -4.0835 C   0  0  0  0  0  0  0  0  0  0  0  0
   14.4605   -1.6986   -4.2931 O   0  0  0  0  0  0  0  0  0  0  0  0
   14.1301   -1.8990   -2.9696 C   0  0  0  0  0  0  0  0  0  0  0  0
   14.8298   -1.0774   -2.0460 C   0  0  2  0  0  0  0  0  0  0  0  0
   15.4103    0.1900   -1.8073 C   0  0  0  0  0  0  0  0  0  0  0  0
   16.3106   -0.8476   -2.4011 C   0  0  1  0  0  0  0  0  0  0  0  0
   17.2653   -1.5931   -1.4995 C   0  0  0  0  0  1  0  0  0  0  0  0
   16.7875   -0.6119   -3.7890 C   0  0  0  0  0  0  0  0  0  0  0  0
   17.3722   -1.7081   -4.5456 C   0  0  0  0  0  3  0  0  0  0  0  0
   17.7981   -1.5790   -5.9332 C   0  0  0  0  0  0  0  0  0  0  0  0
   17.0234   -0.6970   -6.6481 F   0  0  0  0  0  0  0  0  0  0  0  0
  1  2  1  0
  2  3  1  0
  2  4  1  0
  4  5  1  0
  5  6  1  0
  6  7  1  0
  7  8  1  1
  7  9  1  0
  9 10  1  0
 10 11  1  0
 11 12  1  0
 12 13  1  1
 12 14  1  0
 14 15  1  0
 15 16  1  0
 16 17  1  6
 16 18  1  0
 18 19  1  0
 19 20  1  0
 20 21  1  0
 21 22  1  0
 22 23  1  0
 23 24  1  0
 24 25  1  0
 25 26  1  0
 26 27  1  1
 26 28  1  0
 28 29  1  0
 30 29  1  6
 30 31  1  0
 31 32  1  0
 32 33  1  1
 32 34  1  0
 34 35  1  0
 35 36  1  0
 36 37  1  0
 32 30  1  0
M  RAD  5   9   2  14   2  25   2  33   2  35   2
M  END
>  <docking_score>  (3) 
4.5880000000000001

$$$$
