
     RDKit          3D

 24 24  0  0  0  0  0  0  0  0999 V2000
   20.5495   -4.3320   -5.2512 O   0  0  0  0  0  0  0  0  0  0  0  0
   20.4308   -3.0091   -5.7335 C   0  0  0  0  0  0  0  0  0  0  0  0
   19.8534   -2.1025   -4.6902 C   0  0  0  0  0  3  0  0  0  0  0  0
   18.4020   -2.1356   -4.6926 N   0  0  0  0  0  0  0  0  0  0  0  0
   17.9497   -2.7852   -3.5012 C   0  0  2  0  0  0  0  0  0  0  0  0
   17.4931   -1.8331   -2.4249 C   0  0  0  0  0  0  0  0  0  0  0  0
   16.1294   -2.0898   -2.2030 O   0  0  0  0  0  0  0  0  0  0  0  0
   19.0522   -3.6869   -2.9945 C   0  0  1  0  0  0  0  0  0  0  0  0
   19.0712   -3.8021   -1.6227 O   0  0  0  0  0  0  0  0  0  0  0  0
   18.8610   -5.0332   -3.6894 C   0  0  2  0  0  0  0  0  0  0  0  0
   19.6350   -6.0199   -3.0934 O   0  0  0  0  0  0  0  0  0  0  0  0
   19.2456   -4.8159   -5.1412 C   0  0  2  0  0  0  0  0  0  0  0  0
   19.0857   -6.0270   -5.8032 O   0  0  0  0  0  0  0  0  0  0  0  0
   18.1101   -5.8547   -6.7734 C   0  0  0  0  0  0  0  0  0  0  0  0
   17.0408   -6.7090   -6.6711 O   0  0  0  0  0  0  0  0  0  0  0  0
   15.9656   -6.0457   -7.0395 O   0  0  0  0  0  0  0  0  0  0  0  0
   15.6122   -5.2338   -5.9603 C   0  0  2  0  0  0  0  0  0  0  0  0
   14.6651   -5.8476   -5.1437 O   0  0  0  0  0  0  0  0  0  0  0  0
   14.9745   -3.9387   -6.4534 C   0  0  0  0  0  0  0  0  0  0  0  0
   14.2493   -3.4224   -5.3609 O   0  0  0  0  0  0  0  0  0  0  0  0
   14.5959   -2.0608   -5.2965 C   0  0  0  0  0  3  0  0  0  0  0  0
   13.6505   -1.3306   -4.6026 O   0  0  0  0  0  0  0  0  0  0  0  0
   13.8781    0.0277   -4.6393 C   0  0  0  0  0  3  0  0  0  0  0  0
   14.6486    0.4096   -5.7152 O   0  0  0  0  0  0  0  0  0  0  0  0
  1  2  1  0
  2  3  1  0
  3  4  1  0
  4  5  1  0
  5  6  1  1
  6  7  1  0
  5  8  1  0
  8  9  1  1
  8 10  1  0
 10 11  1  1
 10 12  1  0
 12 13  1  6
 13 14  1  0
 14 15  1  0
 15 16  1  0
 16 17  1  0
 17 18  1  1
 17 19  1  0
 19 20  1  0
 20 21  1  0
 21 22  1  0
 22 23  1  0
 23 24  1  0
 12  1  1  0
M  RAD  3   3   2  21   2  23   2
M  END
>  <docking_score>  (1) 
-3.4220000000000002

$$$$

     RDKit          3D

 24 24  0  0  0  0  0  0  0  0999 V2000
   17.4266   -1.7617   -2.1784 O   0  0  0  0  0  0  0  0  0  0  0  0
   18.8222   -1.5580   -2.2645 C   0  0  0  0  0  0  0  0  0  0  0  0
   19.2168   -1.0843   -3.6297 C   0  0  0  0  0  3  0  0  0  0  0  0
   19.4150   -2.1921   -4.5468 N   0  0  0  0  0  0  0  0  0  0  0  0
   18.3651   -2.1851   -5.5182 C   0  0  2  0  0  0  0  0  0  0  0  0
   18.7652   -1.5848   -6.8422 C   0  0  0  0  0  0  0  0  0  0  0  0
   18.4338   -2.5236   -7.8341 O   0  0  0  0  0  0  0  0  0  0  0  0
   17.1721   -1.4629   -4.9347 C   0  0  1  0  0  0  0  0  0  0  0  0
   16.4306   -0.7893   -5.8790 O   0  0  0  0  0  0  0  0  0  0  0  0
   16.3518   -2.5160   -4.1928 C   0  0  2  0  0  0  0  0  0  0  0  0
   15.0943   -2.0302   -3.8606 O   0  0  0  0  0  0  0  0  0  0  0  0
   17.1567   -2.8851   -2.9605 C   0  0  2  0  0  0  0  0  0  0  0  0
   16.4340   -3.8423   -2.2588 O   0  0  0  0  0  0  0  0  0  0  0  0
   17.1226   -5.0427   -2.3469 C   0  0  0  0  0  0  0  0  0  0  0  0
   16.8657   -5.7706   -3.4817 O   0  0  0  0  0  0  0  0  0  0  0  0
   17.8673   -6.6069   -3.6527 O   0  0  0  0  0  0  0  0  0  0  0  0
   18.1842   -6.5724   -5.0117 C   0  0  2  0  0  0  0  0  0  0  0  0
   18.9956   -5.4835   -5.3228 O   0  0  0  0  0  0  0  0  0  0  0  0
   16.9198   -6.4152   -5.8506 C   0  0  0  0  0  0  0  0  0  0  0  0
   17.3543   -6.0822   -7.1492 O   0  0  0  0  0  0  0  0  0  0  0  0
   16.1789   -5.9505   -7.9105 C   0  0  0  0  0  3  0  0  0  0  0  0
   15.4459   -4.8458   -7.5221 O   0  0  0  0  0  0  0  0  0  0  0  0
   14.0913   -4.9935   -7.7248 C   0  0  0  0  0  3  0  0  0  0  0  0
   13.4532   -5.5785   -6.6535 O   0  0  0  0  0  0  0  0  0  0  0  0
  1  2  1  0
  2  3  1  0
  3  4  1  0
  4  5  1  0
  5  6  1  6
  6  7  1  0
  5  8  1  0
  8  9  1  6
  8 10  1  0
 10 11  1  1
 10 12  1  0
 12 13  1  1
 13 14  1  0
 14 15  1  0
 15 16  1  0
 16 17  1  0
 17 18  1  1
 17 19  1  0
 19 20  1  0
 20 21  1  0
 21 22  1  0
 22 23  1  0
 23 24  1  0
 12  1  1  0
M  RAD  3   3   2  21   2  23   2
M  END
>  <docking_score>  (2) 
-3.4079999999999999

$$$$

     RDKit          3D

 24 24  0  0  0  0  0  0  0  0999 V2000
   17.2216   -1.2672   -5.0093 O   0  0  0  0  0  0  0  0  0  0  0  0
   17.6520   -1.9634   -6.1611 C   0  0  0  0  0  0  0  0  0  0  0  0
   16.5193   -2.7086   -6.7978 C   0  0  0  0  0  3  0  0  0  0  0  0
   16.3270   -4.0143   -6.1930 N   0  0  0  0  0  0  0  0  0  0  0  0
   15.1014   -4.0094   -5.4557 C   0  0  2  0  0  0  0  0  0  0  0  0
   13.9511   -4.6583   -6.1830 C   0  0  0  0  0  0  0  0  0  0  0  0
   14.4934   -5.6893   -6.9693 O   0  0  0  0  0  0  0  0  0  0  0  0
   14.7692   -2.5831   -5.0805 C   0  0  1  0  0  0  0  0  0  0  0  0
   13.4156   -2.3378   -5.0259 O   0  0  0  0  0  0  0  0  0  0  0  0
   15.4638   -2.3156   -3.7471 C   0  0  2  0  0  0  0  0  0  0  0  0
   15.0010   -1.1422   -3.1667 O   0  0  0  0  0  0  0  0  0  0  0  0
   16.9485   -2.2453   -4.0526 C   0  0  2  0  0  0  0  0  0  0  0  0
   17.6116   -1.9986   -2.8567 O   0  0  0  0  0  0  0  0  0  0  0  0
   17.4152   -3.0936   -2.0289 C   0  0  0  0  0  0  0  0  0  0  0  0
   18.5504   -3.8110   -1.7460 O   0  0  0  0  0  0  0  0  0  0  0  0
   19.0577   -4.2195   -2.8894 O   0  0  0  0  0  0  0  0  0  0  0  0
   18.9634   -5.6122   -2.8892 C   0  0  2  0  0  0  0  0  0  0  0  0
   20.0244   -6.1994   -3.5750 O   0  0  0  0  0  0  0  0  0  0  0  0
   17.6930   -6.0610   -3.6047 C   0  0  0  0  0  0  0  0  0  0  0  0
   18.1125   -6.6107   -4.8327 O   0  0  0  0  0  0  0  0  0  0  0  0
   17.0993   -7.5151   -5.1989 C   0  0  0  0  0  3  0  0  0  0  0  0
   17.1073   -7.7598   -6.5585 O   0  0  0  0  0  0  0  0  0  0  0  0
   18.1058   -7.0855   -7.2265 C   0  0  0  0  0  3  0  0  0  0  0  0
   18.2235   -7.4751   -8.5423 O   0  0  0  0  0  0  0  0  0  0  0  0
  1  2  1  0
  2  3  1  0
  3  4  1  0
  4  5  1  0
  5  6  1  6
  6  7  1  0
  5  8  1  0
  8  9  1  1
  8 10  1  0
 10 11  1  6
 10 12  1  0
 12 13  1  1
 13 14  1  0
 14 15  1  0
 15 16  1  0
 16 17  1  0
 17 18  1  6
 17 19  1  0
 19 20  1  0
 20 21  1  0
 21 22  1  0
 22 23  1  0
 23 24  1  0
 12  1  1  0
M  RAD  3   3   2  21   2  23   2
M  END
>  <docking_score>  (3) 
-3.2789999999999999

$$$$
