
     RDKit          3D

 25 25  0  0  0  0  0  0  0  0999 V2000
   15.6666   -4.9793   -7.4959 C   0  0  0  0  0  0  0  0  0  0  0  0
   16.0986   -3.6862   -6.8337 C   0  0  1  0  0  0  0  0  0  0  0  0
   14.9590   -3.1624   -5.9697 C   0  0  0  0  0  0  0  0  0  0  0  0
   15.0168   -3.8440   -4.6191 C   0  0  2  0  0  0  0  0  0  0  0  0
   15.9016   -3.1169   -3.8213 O   0  0  0  0  0  0  0  0  0  0  0  0
   15.5447   -5.2444   -4.8257 C   0  0  2  0  0  0  0  0  0  0  0  0
   15.2261   -6.0950   -3.7804 O   0  0  0  0  0  0  0  0  0  0  0  0
   17.0549   -5.1133   -4.9994 C   0  0  1  0  0  0  0  0  0  0  0  0
   17.5963   -6.3086   -5.4016 O   0  0  0  0  0  0  0  0  0  0  0  0
   17.2776   -3.9792   -5.9628 C   0  0  1  0  0  0  0  0  0  0  0  0
   18.5410   -3.9945   -6.6250 N   0  0  0  0  0  0  0  0  0  0  0  0
   19.3713   -2.8413   -6.3311 C   0  0  0  0  0  3  0  0  0  0  0  0
   19.2242   -2.5742   -4.8411 C   0  0  0  0  0  0  0  0  0  0  0  0
   20.0877   -1.5749   -4.4002 O   0  0  0  0  0  0  0  0  0  0  0  0
   19.5574   -0.3205   -4.4723 C   0  0  0  0  0  0  0  0  0  0  0  0
   20.2756    0.6854   -4.9599 O   0  0  0  0  0  0  0  0  0  0  0  0
   19.8349    1.6201   -5.7963 C   0  0  0  0  0  0  0  0  0  0  0  0
   20.0971    3.0395   -5.5645 C   0  0  0  0  0  0  0  0  0  0  0  0
   19.7388    3.8701   -6.5864 O   0  0  0  0  0  0  0  0  0  0  0  0
   18.5604    4.5350   -6.4194 C   0  0  1  0  0  0  0  0  0  0  0  0
   17.4218    3.7885   -6.2707 O   0  0  0  0  0  0  0  0  0  0  0  0
   18.5968    5.5942   -5.3369 C   0  0  2  0  0  0  0  0  0  0  0  0
   17.3464    6.2071   -5.3184 O   0  0  0  0  0  0  0  0  0  0  0  0
   19.6866    6.6232   -5.6405 C   0  0  0  0  0  3  0  0  0  0  0  0
   20.8561    6.3243   -4.9425 O   0  0  0  0  0  0  0  0  0  0  0  0
  2  1  1  1
  2  3  1  0
  3  4  1  0
  4  5  1  1
  4  6  1  0
  6  7  1  1
  6  8  1  0
  8  9  1  6
  8 10  1  0
 10 11  1  6
 11 12  1  0
 12 13  1  0
 13 14  1  0
 14 15  1  0
 15 16  1  0
 16 17  1  0
 17 18  1  0
 18 19  1  0
 19 20  1  0
 20 21  1  1
 20 22  1  0
 22 23  1  6
 22 24  1  0
 24 25  1  0
 10  2  1  0
M  RAD  2  12   2  24   2
M  END
>  <docking_score>  (1) 
-3.21

$$$$

     RDKit          3D

 25 25  0  0  0  0  0  0  0  0999 V2000
   14.7140   -1.6510   -4.2638 C   0  0  0  0  0  0  0  0  0  0  0  0
   15.0175   -2.8604   -5.1253 C   0  0  1  0  0  0  0  0  0  0  0  0
   15.1587   -2.4179   -6.5758 C   0  0  0  0  0  0  0  0  0  0  0  0
   16.5746   -1.9325   -6.8027 C   0  0  2  0  0  0  0  0  0  0  0  0
   17.3550   -3.0482   -7.1097 O   0  0  0  0  0  0  0  0  0  0  0  0
   17.0629   -1.3024   -5.5194 C   0  0  2  0  0  0  0  0  0  0  0  0
   18.1294   -0.4420   -5.7188 O   0  0  0  0  0  0  0  0  0  0  0  0
   17.4392   -2.4535   -4.5912 C   0  0  1  0  0  0  0  0  0  0  0  0
   17.6952   -1.9851   -3.3268 O   0  0  0  0  0  0  0  0  0  0  0  0
   16.3125   -3.4480   -4.6651 C   0  0  1  0  0  0  0  0  0  0  0  0
   16.2226   -4.3357   -3.5520 N   0  0  0  0  0  0  0  0  0  0  0  0
   15.7590   -5.6662   -3.8989 C   0  0  0  0  0  3  0  0  0  0  0  0
   16.6518   -6.1512   -5.0306 C   0  0  0  0  0  0  0  0  0  0  0  0
   16.3474   -7.4538   -5.4168 O   0  0  0  0  0  0  0  0  0  0  0  0
   17.4182   -8.2980   -5.3911 C   0  0  0  0  0  0  0  0  0  0  0  0
   18.2901   -8.3077   -6.3936 O   0  0  0  0  0  0  0  0  0  0  0  0
   19.5991   -8.1022   -6.2861 C   0  0  0  0  0  0  0  0  0  0  0  0
   20.4172   -7.7553   -7.4470 C   0  0  0  0  0  0  0  0  0  0  0  0
   21.3101   -6.7429   -7.2458 O   0  0  0  0  0  0  0  0  0  0  0  0
   20.8231   -5.4828   -7.4292 C   0  0  1  0  0  0  0  0  0  0  0  0
   19.5523   -5.3554   -7.9238 O   0  0  0  0  0  0  0  0  0  0  0  0
   20.9713   -4.5814   -6.2207 C   0  0  2  0  0  0  0  0  0  0  0  0
   19.7353   -4.5454   -5.5799 O   0  0  0  0  0  0  0  0  0  0  0  0
   21.3825   -3.1747   -6.6576 C   0  0  0  0  0  3  0  0  0  0  0  0
   20.9337   -2.9085   -7.9507 O   0  0  0  0  0  0  0  0  0  0  0  0
  2  1  1  1
  2  3  1  0
  3  4  1  0
  4  5  1  1
  4  6  1  0
  6  7  1  6
  6  8  1  0
  8  9  1  1
  8 10  1  0
 10 11  1  1
 11 12  1  0
 12 13  1  0
 13 14  1  0
 14 15  1  0
 15 16  1  0
 16 17  1  0
 17 18  1  0
 18 19  1  0
 19 20  1  0
 20 21  1  1
 20 22  1  0
 22 23  1  6
 22 24  1  0
 24 25  1  0
 10  2  1  0
M  RAD  2  12   2  24   2
M  END
>  <docking_score>  (2) 
-3

$$$$

     RDKit          3D

 25 25  0  0  0  0  0  0  0  0999 V2000
    5.7293   12.9314    2.1632 C   0  0  0  0  0  0  0  0  0  0  0  0
    4.6025   12.8182    3.1705 C   0  0  1  0  0  0  0  0  0  0  0  0
    3.4070   12.1449    2.5092 C   0  0  0  0  0  0  0  0  0  0  0  0
    3.5896   10.6438    2.5825 C   0  0  2  0  0  0  0  0  0  0  0  0
    3.0929   10.2219    3.8167 O   0  0  0  0  0  0  0  0  0  0  0  0
    5.0689   10.3492    2.4970 C   0  0  2  0  0  0  0  0  0  0  0  0
    5.3326    9.0478    2.1044 O   0  0  0  0  0  0  0  0  0  0  0  0
    5.6465   10.6445    3.8781 C   0  0  1  0  0  0  0  0  0  0  0  0
    7.0180   10.6078    3.8415 O   0  0  0  0  0  0  0  0  0  0  0  0
    5.0754   11.9691    4.3061 C   0  0  1  0  0  0  0  0  0  0  0  0
    5.8266   12.6496    5.3098 N   0  0  0  0  0  0  0  0  0  0  0  0
    5.2107   13.8801    5.7702 C   0  0  0  0  0  3  0  0  0  0  0  0
    4.2354   13.4877    6.8692 C   0  0  0  0  0  0  0  0  0  0  0  0
    4.7798   13.6599    8.1390 O   0  0  0  0  0  0  0  0  0  0  0  0
    4.3271   12.7585    9.0569 C   0  0  0  0  0  0  0  0  0  0  0  0
    3.9097   11.5578    8.6700 O   0  0  0  0  0  0  0  0  0  0  0  0
    4.1836   10.4077    9.2779 C   0  0  0  0  0  0  0  0  0  0  0  0
    4.3100   10.3217   10.7318 C   0  0  0  0  0  0  0  0  0  0  0  0
    5.5898   10.2440   11.1993 O   0  0  0  0  0  0  0  0  0  0  0  0
    5.8975   11.0962   12.2180 C   0  0  1  0  0  0  0  0  0  0  0  0
    6.6570   12.1968   11.9220 O   0  0  0  0  0  0  0  0  0  0  0  0
    4.7026   11.5322   13.0409 C   0  0  2  0  0  0  0  0  0  0  0  0
    4.7767   12.9166   13.1727 O   0  0  0  0  0  0  0  0  0  0  0  0
    4.7374   10.8666   14.4173 C   0  0  0  0  0  3  0  0  0  0  0  0
    4.0019   11.6066   15.3424 O   0  0  0  0  0  0  0  0  0  0  0  0
  2  1  1  6
  2  3  1  0
  3  4  1  0
  4  5  1  1
  4  6  1  0
  6  7  1  1
  6  8  1  0
  8  9  1  6
  8 10  1  0
 10 11  1  6
 11 12  1  0
 12 13  1  0
 13 14  1  0
 14 15  1  0
 15 16  1  0
 16 17  1  0
 17 18  1  0
 18 19  1  0
 19 20  1  0
 20 21  1  6
 20 22  1  0
 22 23  1  1
 22 24  1  0
 24 25  1  0
 10  2  1  0
M  RAD  2  12   2  24   2
M  END
>  <docking_score>  (3) 
-2.996

$$$$
