
     RDKit          3D

 12 11  0  0  0  0  0  0  0  0999 V2000
   14.6477   -1.1634   -6.0238 C   0  0  0  0  0  0  0  0  0  0  0  0
   15.8458   -1.5771   -6.3928 C   0  0  0  0  0  0  0  0  0  0  0  0
   15.9770   -2.5398   -7.5074 C   0  0  0  0  0  0  0  0  0  0  0  0
   17.0585   -1.0913   -5.7069 C   0  0  0  0  0  3  0  0  0  0  0  0
   17.6791   -2.0660   -4.7625 C   0  0  0  0  0  0  0  0  0  0  0  0
   16.9915   -2.2293   -3.4528 C   0  0  0  0  0  0  0  0  0  0  0  0
   16.4208   -3.5740   -3.1946 C   0  0  0  0  0  3  0  0  0  0  0  0
   16.6682   -4.0927   -1.8094 C   0  0  0  0  0  0  0  0  0  0  0  0
   16.5936   -4.5711   -4.2772 C   0  0  0  0  0  0  0  0  0  0  0  0
   15.3552   -5.2169   -4.7904 C   0  0  0  0  0  0  0  0  0  0  0  0
   15.2933   -6.6728   -4.6879 C   0  0  0  0  0  0  0  0  0  0  0  0
   14.3726   -7.3335   -4.2450 O   0  0  0  0  0  0  0  0  0  0  0  0
  1  2  2  0
  2  3  1  0
  2  4  1  0
  4  5  1  0
  5  6  1  0
  6  7  1  0
  7  8  1  0
  7  9  1  0
  9 10  1  0
 10 11  1  0
 11 12  2  0
M  RAD  2   4   2   7   2
M  END
>  <docking_score>  (1) 
-3.3210000000000002

$$$$

     RDKit          3D

 12 11  0  0  0  0  0  0  0  0999 V2000
   18.6120   -3.4363   -1.8705 C   0  0  0  0  0  0  0  0  0  0  0  0
   17.3089   -3.3761   -2.0729 C   0  0  0  0  0  0  0  0  0  0  0  0
   16.4518   -4.5108   -1.6681 C   0  0  0  0  0  0  0  0  0  0  0  0
   16.6946   -2.1895   -2.6990 C   0  0  0  0  0  3  0  0  0  0  0  0
   17.2110   -1.8589   -4.0595 C   0  0  0  0  0  0  0  0  0  0  0  0
   16.1809   -1.6644   -5.1158 C   0  0  0  0  0  0  0  0  0  0  0  0
   15.9797   -2.8146   -6.0309 C   0  0  0  0  0  3  0  0  0  0  0  0
   15.5243   -2.4338   -7.4080 C   0  0  0  0  0  0  0  0  0  0  0  0
   15.2979   -3.9949   -5.4494 C   0  0  0  0  0  0  0  0  0  0  0  0
   16.1208   -5.2235   -5.2838 C   0  0  0  0  0  0  0  0  0  0  0  0
   15.4619   -6.3648   -4.6536 C   0  0  0  0  0  0  0  0  0  0  0  0
   14.3201   -6.7413   -4.8405 O   0  0  0  0  0  0  0  0  0  0  0  0
  1  2  2  0
  2  3  1  0
  2  4  1  0
  4  5  1  0
  5  6  1  0
  6  7  1  0
  7  8  1  0
  7  9  1  0
  9 10  1  0
 10 11  1  0
 11 12  2  0
M  RAD  2   4   2   7   2
M  END
>  <docking_score>  (2) 
-3.0529999999999999

$$$$

     RDKit          3D

 12 11  0  0  0  0  0  0  0  0999 V2000
   17.1537   -3.6621   -1.6703 C   0  0  0  0  0  0  0  0  0  0  0  0
   18.3899   -3.6298   -2.1324 C   0  0  0  0  0  0  0  0  0  0  0  0
   19.2389   -2.4480   -1.8704 C   0  0  0  0  0  0  0  0  0  0  0  0
   18.9373   -4.7592   -2.9084 C   0  0  0  0  0  3  0  0  0  0  0  0
   18.0509   -5.9573   -2.9844 C   0  0  0  0  0  0  0  0  0  0  0  0
   17.4116   -6.2098   -4.3044 C   0  0  0  0  0  0  0  0  0  0  0  0
   16.0422   -5.6625   -4.4657 C   0  0  0  0  0  3  0  0  0  0  0  0
   14.9893   -6.7007   -4.7155 C   0  0  0  0  0  0  0  0  0  0  0  0
   15.9256   -4.4396   -5.2947 C   0  0  0  0  0  0  0  0  0  0  0  0
   14.5870   -3.7913   -5.3388 C   0  0  0  0  0  0  0  0  0  0  0  0
   14.5489   -2.3623   -5.0384 C   0  0  0  0  0  0  0  0  0  0  0  0
   14.7909   -1.4497   -5.8060 O   0  0  0  0  0  0  0  0  0  0  0  0
  1  2  2  0
  2  3  1  0
  2  4  1  0
  4  5  1  0
  5  6  1  0
  6  7  1  0
  7  8  1  0
  7  9  1  0
  9 10  1  0
 10 11  1  0
 11 12  2  0
M  RAD  2   4   2   7   2
M  END
>  <docking_score>  (3) 
-3.0510000000000002

$$$$
