
     RDKit          3D

 53 54  0  0  0  0  0  0  0  0999 V2000
   17.9217   -8.1307   -4.9093 C   0  0  0  0  0  0  0  0  0  0  0  0
   17.3857   -8.3261   -6.3475 C   0  0  0  0  0  0  0  0  0  0  0  0
   17.8850   -9.6260   -6.8953 C   0  0  0  0  0  0  0  0  0  0  0  0
   17.7794   -7.1166   -7.1622 C   0  0  0  0  0  0  0  0  0  0  0  0
   16.5968   -6.3070   -7.6170 C   0  0  0  0  0  0  0  0  0  0  0  0
   16.9200   -4.8528   -7.5863 C   0  0  0  0  0  0  0  0  0  0  0  0
   18.2376   -4.5038   -7.0022 C   0  0  1  0  0  0  0  0  0  0  0  0
   19.4316   -4.6297   -7.8743 C   0  0  0  0  0  0  0  0  0  0  0  0
   18.2371   -3.1817   -6.2974 C   0  0  0  0  0  3  0  0  0  0  0  0
   16.7877   -2.7518   -6.1349 C   0  0  0  0  0  0  0  0  0  0  0  0
   16.8253   -1.4894   -5.2754 C   0  0  0  0  0  0  0  0  0  0  0  0
   16.3851   -1.8640   -3.8832 C   0  0  2  0  0  0  0  0  0  0  0  0
   17.0495   -3.1501   -3.4483 C   0  0  0  0  0  0  0  0  0  0  0  0
   14.8792   -1.9907   -3.8741 C   0  0  0  0  0  3  0  0  0  0  0  0
   14.3076   -1.3335   -5.0886 C   0  0  0  0  0  0  0  0  0  0  0  0
   13.0057   -0.7118   -4.9372 C   0  0  2  0  0  0  0  0  0  0  0  0
   12.9425    0.7038   -5.3346 C   0  0  0  0  0  0  0  0  0  0  0  0
   12.0009   -1.2675   -4.0620 C   0  0  0  0  0  0  0  0  0  0  0  0
   10.6203   -1.1573   -4.6215 C   0  0  0  0  0  0  0  0  0  0  0  0
    9.6712   -0.6683   -3.6136 C   0  0  1  0  0  0  0  0  0  0  0  0
    9.9274   -0.8664   -2.3060 O   0  0  0  0  0  0  0  0  0  0  0  0
    8.5418    0.1680   -4.0339 C   0  0  0  0  0  0  0  0  0  0  0  0
    8.8900    1.6191   -4.1978 C   0  0  0  0  0  0  0  0  0  0  0  0
    7.6710    2.4541   -4.2264 C   0  0  0  0  0  0  0  0  0  0  0  0
    7.5431    3.5087   -3.1911 C   0  0  2  0  0  0  0  0  0  0  0  0
    6.3378    3.3831   -2.5021 O   0  0  0  0  0  0  0  0  0  0  0  0
    7.8337    4.9249   -3.5336 C   0  0  0  0  0  0  0  0  0  0  0  0
    9.2429    4.7423   -3.0137 C   0  0  0  0  0  0  0  0  0  0  0  0
    8.7069    3.5821   -2.2008 C   0  0  1  0  0  0  0  0  0  0  0  0
    8.2174    4.0331   -0.8652 C   0  0  2  0  0  0  0  0  0  0  0  0
    7.1037    3.1952   -0.3440 O   0  0  0  0  0  0  0  0  0  0  0  0
    6.9722    4.5526   -0.5191 C   0  0  1  0  0  0  0  0  0  0  0  0
    6.8288    5.2735    0.6658 O   0  0  0  0  0  0  0  0  0  0  0  0
    5.8256    6.2635    0.5482 C   0  0  0  0  0  0  0  0  0  0  0  0
    4.8158    5.9124    1.6465 C   0  0  0  0  0  0  0  0  0  0  0  0
    5.5725    6.1170    2.9641 C   0  0  0  0  0  3  0  0  0  0  0  0
    4.9412    7.2769    3.6976 C   0  0  0  0  0  0  0  0  0  0  0  0
    4.6342    6.8189    5.1112 C   0  0  2  0  0  0  0  0  0  0  0  0
    4.2561    5.4718    5.1205 O   0  0  0  0  0  0  0  0  0  0  0  0
    3.4479    7.5898    5.6750 C   0  0  0  0  0  3  0  0  0  0  0  0
    3.9627    8.9506    6.0993 C   0  0  0  0  0  0  0  0  0  0  0  0
    2.7331    9.8431    6.2825 C   0  0  0  0  0  0  0  0  0  0  0  0
    2.8654   11.0015    5.3282 C   0  0  2  0  0  0  0  0  0  0  0  0
    2.2579   12.2443    5.9109 C   0  0  0  0  0  0  0  0  0  0  0  0
    2.2591   10.7100    3.9901 C   0  0  0  0  0  0  0  0  0  0  0  0
    2.7310   11.8026    3.0403 C   0  0  0  0  0  0  0  0  0  0  0  0
    3.8833   12.5747    3.6200 C   0  0  2  0  0  0  0  0  0  0  0  0
    3.7003   14.0653    3.4215 C   0  0  0  0  0  0  0  0  0  0  0  0
    5.1296   12.1431    2.8492 C   0  0  2  0  0  0  0  0  0  0  0  0
    5.1446   10.6494    2.8052 C   0  0  0  0  0  1  0  0  0  0  0  0
    6.3660   12.6551    3.5352 C   0  0  0  0  0  3  0  0  0  0  0  0
    6.7093   11.7574    4.6857 C   0  0  0  0  0  0  0  0  0  0  0  0
    7.7073   10.8388    4.3889 O   0  0  0  0  0  1  0  0  0  0  0  0
  1  2  1  0
  2  3  1  0
  2  4  1  0
  4  5  1  0
  5  6  1  0
  6  7  1  0
  7  8  1  6
  7  9  1  0
  9 10  1  0
 10 11  1  0
 11 12  1  0
 12 13  1  6
 12 14  1  0
 14 15  1  0
 15 16  1  0
 16 17  1  1
 16 18  1  0
 18 19  1  0
 19 20  1  0
 20 21  1  1
 20 22  1  0
 22 23  1  0
 23 24  1  0
 24 25  1  0
 25 26  1  1
 25 27  1  0
 27 28  1  0
 29 28  1  6
 29 30  1  0
 30 31  1  1
 31 32  1  0
 32 33  1  1
 33 34  1  0
 34 35  1  0
 35 36  1  0
 36 37  1  0
 37 38  1  0
 38 39  1  6
 38 40  1  0
 40 41  1  0
 41 42  1  0
 42 43  1  0
 43 44  1  1
 43 45  1  0
 45 46  1  0
 46 47  1  0
 47 48  1  6
 47 49  1  0
 49 50  1  1
 49 51  1  0
 51 52  1  0
 52 53  1  0
 29 25  1  0
 32 30  1  0
M  CHG  1  53  -1
M  RAD  6   9   2  14   2  36   2  40   2  50   2  51   2
M  END
>  <docking_score>  (1) 
17.835000000000001

$$$$
