
     RDKit          3D

 24 25  0  0  0  0  0  0  0  0999 V2000
   16.7838   -3.5972   -1.5132 C   0  0  0  0  0  0  0  0  0  0  0  0
   17.2339   -2.7902   -2.6999 C   0  0  1  0  0  0  0  0  0  0  0  0
   18.0571   -1.5825   -2.2500 C   0  0  0  0  0  0  0  0  0  0  0  0
   19.1848   -1.3145   -3.2410 C   0  0  2  0  0  0  0  0  0  0  0  0
   18.6101   -1.3524   -4.5095 O   0  0  0  0  0  0  0  0  0  0  0  0
   20.2172   -2.4288   -3.1633 C   0  0  2  0  0  0  0  0  0  0  0  0
   20.8293   -2.5766   -4.4194 O   0  0  0  0  0  0  0  0  0  0  0  0
   19.4499   -3.7006   -2.9249 C   0  0  1  0  0  0  0  0  0  0  0  0
   19.2355   -3.9499   -1.5778 O   0  0  0  0  0  0  0  0  0  0  0  0
   18.1061   -3.5593   -3.6424 C   0  0  1  0  0  0  0  0  0  0  0  0
   17.6211   -4.7995   -4.0994 N   0  0  0  0  0  0  0  0  0  0  0  0
   17.3346   -4.9272   -5.4938 C   0  0  1  0  0  0  0  0  0  0  0  0
   18.2927   -5.8262   -6.1473 C   0  0  0  0  0  0  0  0  0  0  0  0
   17.8063   -7.1545   -6.5844 C   0  0  1  0  0  0  0  0  0  0  0  0
   17.6131   -7.1446   -7.9730 O   0  0  0  0  0  0  0  0  0  0  0  0
   18.9075   -8.1765   -6.3405 C   0  0  0  0  0  0  0  0  0  0  0  0
   19.8275   -7.7418   -5.4072 O   0  0  0  0  0  0  0  0  0  0  0  0
   16.5815   -7.6998   -5.9391 C   0  0  1  0  0  0  0  0  0  0  0  0
   16.7320   -8.9564   -5.3821 O   0  0  0  0  0  0  0  0  0  0  0  0
   15.9424   -6.8020   -4.9243 C   0  0  2  0  0  0  0  0  0  0  0  0
   14.6879   -7.2451   -4.5701 O   0  0  0  0  0  0  0  0  0  0  0  0
   15.9032   -5.4345   -5.5911 C   0  0  1  0  0  0  0  0  0  0  0  0
   14.9782   -4.6030   -4.9997 O   0  0  0  0  0  0  0  0  0  0  0  0
   14.7891   -3.5806   -5.7838 O   0  0  0  0  0  0  0  0  0  0  0  0
  2  1  1  1
  2  3  1  0
  3  4  1  0
  4  5  1  6
  4  6  1  0
  6  7  1  6
  6  8  1  0
  8  9  1  1
  8 10  1  0
 10 11  1  1
 12 11  1  1
 12 13  1  0
 13 14  1  0
 14 15  1  6
 14 16  1  0
 16 17  1  0
 14 18  1  0
 18 19  1  1
 18 20  1  0
 20 21  1  6
 20 22  1  0
 22 23  1  1
 23 24  1  0
 10  2  1  0
 22 12  1  0
M  END
>  <docking_score>  (1) 
-4.5529999999999999

$$$$

     RDKit          3D

 24 25  0  0  0  0  0  0  0  0999 V2000
   20.1722    0.0978   -4.2386 C   0  0  0  0  0  0  0  0  0  0  0  0
   19.4643   -0.4554   -5.4448 C   0  0  1  0  0  0  0  0  0  0  0  0
   20.4274   -0.5786   -6.6262 C   0  0  0  0  0  0  0  0  0  0  0  0
   20.1062   -1.8278   -7.4400 C   0  0  2  0  0  0  0  0  0  0  0  0
   18.7279   -1.8211   -7.6421 O   0  0  0  0  0  0  0  0  0  0  0  0
   20.4538   -3.0718   -6.6367 C   0  0  2  0  0  0  0  0  0  0  0  0
   19.6002   -4.1199   -7.0203 O   0  0  0  0  0  0  0  0  0  0  0  0
   20.1100   -2.7610   -5.2055 C   0  0  1  0  0  0  0  0  0  0  0  0
   21.1564   -2.1581   -4.5240 O   0  0  0  0  0  0  0  0  0  0  0  0
   18.9005   -1.8244   -5.2241 C   0  0  1  0  0  0  0  0  0  0  0  0
   18.0773   -2.0060   -4.0964 N   0  0  0  0  0  0  0  0  0  0  0  0
   16.6624   -1.9670   -4.2943 C   0  0  1  0  0  0  0  0  0  0  0  0
   16.2828   -2.6809   -5.5188 C   0  0  0  0  0  0  0  0  0  0  0  0
   15.5778   -3.9748   -5.3737 C   0  0  1  0  0  0  0  0  0  0  0  0
   14.2133   -3.7927   -5.6395 O   0  0  0  0  0  0  0  0  0  0  0  0
   16.0745   -4.9200   -6.4584 C   0  0  0  0  0  0  0  0  0  0  0  0
   15.5394   -4.6233   -7.6961 O   0  0  0  0  0  0  0  0  0  0  0  0
   15.7164   -4.7083   -4.0866 C   0  0  1  0  0  0  0  0  0  0  0  0
   16.1635   -6.0110   -4.2087 O   0  0  0  0  0  0  0  0  0  0  0  0
   16.5414   -4.0168   -3.0447 C   0  0  2  0  0  0  0  0  0  0  0  0
   16.4075   -4.6123   -1.8106 O   0  0  0  0  0  0  0  0  0  0  0  0
   16.0398   -2.5799   -3.0483 C   0  0  1  0  0  0  0  0  0  0  0  0
   16.3657   -1.9211   -1.8835 O   0  0  0  0  0  0  0  0  0  0  0  0
   15.5267   -0.9382   -1.7228 O   0  0  0  0  0  0  0  0  0  0  0  0
  2  1  1  1
  2  3  1  0
  3  4  1  0
  4  5  1  1
  4  6  1  0
  6  7  1  6
  6  8  1  0
  8  9  1  6
  8 10  1  0
 10 11  1  1
 12 11  1  1
 12 13  1  0
 13 14  1  0
 14 15  1  6
 14 16  1  0
 16 17  1  0
 14 18  1  0
 18 19  1  6
 18 20  1  0
 20 21  1  1
 20 22  1  0
 22 23  1  1
 23 24  1  0
 10  2  1  0
 22 12  1  0
M  END
>  <docking_score>  (2) 
-4.4859999999999998

$$$$

     RDKit          3D

 24 25  0  0  0  0  0  0  0  0999 V2000
   19.0120   -6.3194   -3.2097 C   0  0  0  0  0  0  0  0  0  0  0  0
   18.5230   -5.0093   -2.6559 C   0  0  1  0  0  0  0  0  0  0  0  0
   19.6757   -4.2257   -2.0268 C   0  0  0  0  0  0  0  0  0  0  0  0
   19.4998   -2.7327   -2.2831 C   0  0  2  0  0  0  0  0  0  0  0  0
   18.1771   -2.4327   -1.9650 O   0  0  0  0  0  0  0  0  0  0  0  0
   19.7034   -2.4341   -3.7606 C   0  0  2  0  0  0  0  0  0  0  0  0
   18.9288   -1.3166   -4.1147 O   0  0  0  0  0  0  0  0  0  0  0  0
   19.1176   -3.5983   -4.5121 C   0  0  1  0  0  0  0  0  0  0  0  0
   20.0306   -4.6244   -4.7026 O   0  0  0  0  0  0  0  0  0  0  0  0
   17.9295   -4.1115   -3.6962 C   0  0  1  0  0  0  0  0  0  0  0  0
   16.9240   -4.6565   -4.5172 N   0  0  0  0  0  0  0  0  0  0  0  0
   15.5801   -4.2218   -4.2981 C   0  0  1  0  0  0  0  0  0  0  0  0
   15.4986   -2.7569   -4.2744 C   0  0  0  0  0  0  0  0  0  0  0  0
   14.8465   -2.0827   -5.4200 C   0  0  1  0  0  0  0  0  0  0  0  0
   13.5587   -1.6734   -5.0464 O   0  0  0  0  0  0  0  0  0  0  0  0
   15.6044   -0.7970   -5.7192 C   0  0  0  0  0  0  0  0  0  0  0  0
   14.7892    0.3159   -5.6633 O   0  0  0  0  0  0  0  0  0  0  0  0
   14.7543   -2.8213   -6.7084 C   0  0  1  0  0  0  0  0  0  0  0  0
   15.2836   -2.1531   -7.7971 O   0  0  0  0  0  0  0  0  0  0  0  0
   15.3099   -4.2123   -6.6866 C   0  0  2  0  0  0  0  0  0  0  0  0
   14.9553   -4.9205   -7.8128 O   0  0  0  0  0  0  0  0  0  0  0  0
   14.7464   -4.8316   -5.4156 C   0  0  1  0  0  0  0  0  0  0  0  0
   14.7906   -6.2077   -5.4536 O   0  0  0  0  0  0  0  0  0  0  0  0
   15.9877   -6.5671   -5.8194 O   0  0  0  0  0  0  0  0  0  0  0  0
  2  1  1  6
  2  3  1  0
  3  4  1  0
  4  5  1  6
  4  6  1  0
  6  7  1  6
  6  8  1  0
  8  9  1  1
  8 10  1  0
 10 11  1  6
 12 11  1  6
 12 13  1  0
 13 14  1  0
 14 15  1  1
 14 16  1  0
 16 17  1  0
 14 18  1  0
 18 19  1  6
 18 20  1  0
 20 21  1  6
 20 22  1  0
 22 23  1  6
 23 24  1  0
 10  2  1  0
 22 12  1  0
M  END
>  <docking_score>  (3) 
-4.1849999999999996

$$$$
