
     RDKit          3D

 26 26  0  0  0  0  0  0  0  0999 V2000
   20.4225   -4.6498   -6.0983 C   0  0  0  0  0  0  0  0  0  0  0  0
   19.2031   -5.1330   -6.8938 C   0  0  1  0  0  0  0  0  0  0  0  0
   19.4365   -6.5981   -7.1718 C   0  0  0  0  0  0  0  0  0  0  0  0
   18.2626   -7.4540   -6.8405 C   0  0  2  0  0  0  0  0  0  0  0  0
   17.2376   -7.4043   -7.7721 O   0  0  0  0  0  0  0  0  0  0  0  0
   17.7955   -7.3185   -5.4223 C   0  0  2  0  0  0  0  0  0  0  0  0
   16.4251   -7.6364   -5.3985 O   0  0  0  0  0  0  0  0  0  0  0  0
   17.9287   -5.9024   -4.9035 C   0  0  1  0  0  0  0  0  0  0  0  0
   19.0647   -5.7028   -4.1561 O   0  0  0  0  0  0  0  0  0  0  0  0
   17.9301   -4.9844   -6.0976 C   0  0  1  0  0  0  0  0  0  0  0  0
   17.6152   -3.6325   -5.7750 N   0  0  0  0  0  0  0  0  0  0  0  0
   16.1976   -3.4043   -5.5811 C   0  0  0  0  0  3  0  0  0  0  0  0
   15.8705   -2.1502   -6.4041 C   0  0  0  0  0  0  0  0  0  0  0  0
   15.2866   -1.1498   -5.4528 C   0  0  1  0  0  0  0  0  0  0  0  0
   14.3666   -0.3214   -6.0431 O   0  0  0  0  0  0  0  0  0  0  0  0
   14.9206   -1.6895   -4.1161 C   0  0  0  0  0  3  0  0  0  0  0  0
   15.1280   -0.8532   -3.0504 O   0  0  0  0  0  0  0  0  0  0  0  0
   15.7972   -1.5741   -2.0610 C   0  0  0  0  0  0  0  0  0  0  0  0
   17.1301   -1.6440   -2.4334 O   0  0  0  0  0  0  0  0  0  0  0  0
   17.7865   -2.7322   -1.9008 C   0  0  1  0  0  0  0  0  0  0  0  0
   17.0811   -3.8995   -2.1466 O   0  0  0  0  0  0  0  0  0  0  0  0
   19.2093   -2.7648   -2.3504 C   0  0  2  0  0  0  0  0  0  0  0  0
   19.9372   -3.5233   -1.4355 O   0  0  0  0  0  0  0  0  0  0  0  0
   19.8443   -1.4084   -2.4582 C   0  0  0  0  0  3  0  0  0  0  0  0
   20.2899   -0.9421   -1.2272 O   0  0  0  0  0  0  0  0  0  0  0  0
   20.9165    0.2007   -1.3371 O   0  0  0  0  0  0  0  0  0  0  0  0
  2  1  1  1
  2  3  1  0
  3  4  1  0
  4  5  1  6
  4  6  1  0
  6  7  1  6
  6  8  1  0
  8  9  1  6
  8 10  1  0
 10 11  1  1
 11 12  1  0
 12 13  1  0
 13 14  1  0
 14 15  1  6
 14 16  1  0
 16 17  1  0
 17 18  1  0
 18 19  1  0
 19 20  1  0
 20 21  1  6
 20 22  1  0
 22 23  1  1
 22 24  1  0
 24 25  1  0
 25 26  1  0
 10  2  1  0
M  RAD  3  12   2  16   2  24   2
M  END
>  <docking_score>  (1) 
-3.4769999999999999

$$$$

     RDKit          3D

 26 26  0  0  0  0  0  0  0  0999 V2000
   14.0169   -0.8144   -4.2688 C   0  0  0  0  0  0  0  0  0  0  0  0
   14.6273   -1.3588   -5.5667 C   0  0  1  0  0  0  0  0  0  0  0  0
   15.8349   -0.5006   -5.8554 C   0  0  0  0  0  0  0  0  0  0  0  0
   17.0584   -1.2922   -6.1664 C   0  0  2  0  0  0  0  0  0  0  0  0
   17.0858   -1.8233   -7.4464 O   0  0  0  0  0  0  0  0  0  0  0  0
   17.4314   -2.2754   -5.0978 C   0  0  2  0  0  0  0  0  0  0  0  0
   18.1415   -3.3205   -5.7167 O   0  0  0  0  0  0  0  0  0  0  0  0
   16.2194   -2.8968   -4.4366 C   0  0  1  0  0  0  0  0  0  0  0  0
   15.8829   -2.2969   -3.2467 O   0  0  0  0  0  0  0  0  0  0  0  0
   15.0736   -2.7914   -5.4085 C   0  0  1  0  0  0  0  0  0  0  0  0
   14.0058   -3.6924   -5.1274 N   0  0  0  0  0  0  0  0  0  0  0  0
   13.7279   -4.6093   -6.2143 C   0  0  0  0  0  3  0  0  0  0  0  0
   14.6583   -5.8085   -5.9837 C   0  0  0  0  0  0  0  0  0  0  0  0
   15.4879   -5.9558   -7.2234 C   0  0  1  0  0  0  0  0  0  0  0  0
   15.1968   -5.0157   -8.1788 O   0  0  0  0  0  0  0  0  0  0  0  0
   16.9313   -6.2262   -6.9879 C   0  0  0  0  0  3  0  0  0  0  0  0
   17.3553   -7.5041   -7.2436 O   0  0  0  0  0  0  0  0  0  0  0  0
   18.7092   -7.5824   -6.9163 C   0  0  0  0  0  0  0  0  0  0  0  0
   18.9797   -6.5481   -6.0346 O   0  0  0  0  0  0  0  0  0  0  0  0
   20.0875   -6.7801   -5.2487 C   0  0  1  0  0  0  0  0  0  0  0  0
   21.0846   -5.8569   -5.5210 O   0  0  0  0  0  0  0  0  0  0  0  0
   19.7059   -6.8695   -3.8085 C   0  0  2  0  0  0  0  0  0  0  0  0
   19.2684   -8.1680   -3.5543 O   0  0  0  0  0  0  0  0  0  0  0  0
   18.6208   -5.9128   -3.4063 C   0  0  0  0  0  3  0  0  0  0  0  0
   18.9877   -5.1385   -2.3121 O   0  0  0  0  0  0  0  0  0  0  0  0
   19.1914   -3.8902   -2.6451 O   0  0  0  0  0  0  0  0  0  0  0  0
  2  1  1  1
  2  3  1  0
  3  4  1  0
  4  5  1  6
  4  6  1  0
  6  7  1  6
  6  8  1  0
  8  9  1  1
  8 10  1  0
 10 11  1  1
 11 12  1  0
 12 13  1  0
 13 14  1  0
 14 15  1  1
 14 16  1  0
 16 17  1  0
 17 18  1  0
 18 19  1  0
 19 20  1  0
 20 21  1  1
 20 22  1  0
 22 23  1  6
 22 24  1  0
 24 25  1  0
 25 26  1  0
 10  2  1  0
M  RAD  3  12   2  16   2  24   2
M  END
>  <docking_score>  (2) 
-3.4329999999999998

$$$$

     RDKit          3D

 26 26  0  0  0  0  0  0  0  0999 V2000
   19.0063   -0.8222   -5.4177 C   0  0  0  0  0  0  0  0  0  0  0  0
   18.9620   -2.3105   -5.0480 C   0  0  1  0  0  0  0  0  0  0  0  0
   20.3987   -2.7660   -4.9664 C   0  0  0  0  0  0  0  0  0  0  0  0
   20.7041   -3.5290   -3.7234 C   0  0  2  0  0  0  0  0  0  0  0  0
   20.2522   -4.8392   -3.7311 O   0  0  0  0  0  0  0  0  0  0  0  0
   20.3793   -2.7866   -2.4620 C   0  0  2  0  0  0  0  0  0  0  0  0
   20.1159   -3.7447   -1.4658 O   0  0  0  0  0  0  0  0  0  0  0  0
   19.1336   -1.9367   -2.5968 C   0  0  1  0  0  0  0  0  0  0  0  0
   19.4040   -0.6159   -2.8636 O   0  0  0  0  0  0  0  0  0  0  0  0
   18.3047   -2.5270   -3.7072 C   0  0  1  0  0  0  0  0  0  0  0  0
   16.9382   -2.1241   -3.6716 N   0  0  0  0  0  0  0  0  0  0  0  0
   16.0541   -3.1409   -3.1391 C   0  0  0  0  0  3  0  0  0  0  0  0
   16.5840   -4.4717   -3.6917 C   0  0  0  0  0  0  0  0  0  0  0  0
   15.5706   -4.9623   -4.6812 C   0  0  1  0  0  0  0  0  0  0  0  0
   15.3748   -4.0936   -5.7243 O   0  0  0  0  0  0  0  0  0  0  0  0
   15.6836   -6.4015   -5.0388 C   0  0  0  0  0  3  0  0  0  0  0  0
   16.9495   -6.9267   -5.0340 O   0  0  0  0  0  0  0  0  0  0  0  0
   16.8669   -8.2536   -5.4567 C   0  0  0  0  0  0  0  0  0  0  0  0
   18.0470   -8.8779   -5.0854 O   0  0  0  0  0  0  0  0  0  0  0  0
   19.0749   -7.9939   -4.8388 C   0  0  1  0  0  0  0  0  0  0  0  0
   19.5479   -8.1399   -3.5444 O   0  0  0  0  0  0  0  0  0  0  0  0
   20.1250   -8.0946   -5.8946 C   0  0  2  0  0  0  0  0  0  0  0  0
   21.3298   -8.4291   -5.2791 O   0  0  0  0  0  0  0  0  0  0  0  0
   20.3241   -6.8287   -6.6771 C   0  0  0  0  0  3  0  0  0  0  0  0
   19.1861   -6.4727   -7.3910 O   0  0  0  0  0  0  0  0  0  0  0  0
   18.9190   -5.1974   -7.2773 O   0  0  0  0  0  0  0  0  0  0  0  0
  2  1  1  1
  2  3  1  0
  3  4  1  0
  4  5  1  6
  4  6  1  0
  6  7  1  1
  6  8  1  0
  8  9  1  6
  8 10  1  0
 10 11  1  6
 11 12  1  0
 12 13  1  0
 13 14  1  0
 14 15  1  6
 14 16  1  0
 16 17  1  0
 17 18  1  0
 18 19  1  0
 19 20  1  0
 20 21  1  1
 20 22  1  0
 22 23  1  1
 22 24  1  0
 24 25  1  0
 25 26  1  0
 10  2  1  0
M  RAD  3  12   2  16   2  24   2
M  END
>  <docking_score>  (3) 
-3.1230000000000002

$$$$
