
     RDKit          3D

  9  9  0  0  0  0  0  0  0  0999 V2000
    5.4603    2.1872   -6.0760 O   0  0  0  0  0  0  0  0  0  0  0  0
    6.5533    1.9760   -5.5114 C   0  0  0  0  0  0  0  0  0  0  0  0
    7.1740    0.7089   -5.6330 N   0  0  0  0  0  0  0  0  0  0  0  0
    6.5452   -0.3047   -6.3952 C   0  0  0  0  0  0  0  0  0  0  0  0
    6.1846   -1.4876   -5.7963 C   0  0  0  0  0  0  0  0  0  0  0  0
    5.5766   -2.4479   -6.5663 C   0  0  0  0  0  0  0  0  0  0  0  0
    5.3279   -2.2491   -7.9001 C   0  0  0  0  0  0  0  0  0  0  0  0
    5.7016   -1.0586   -8.4594 C   0  0  0  0  0  0  0  0  0  0  0  0
    6.3103   -0.0713   -7.7324 C   0  0  0  0  0  0  0  0  0  0  0  0
  1  2  2  0
  2  3  1  0
  3  4  1  0
  4  5  2  0
  5  6  1  0
  6  7  2  0
  7  8  1  0
  8  9  2  0
  9  4  1  0
M  END
>  <docking_score>  (1) 
-4.9820000000000002

$$$$

     RDKit          3D

  9  9  0  0  0  0  0  0  0  0999 V2000
    6.3532   -5.5777   -8.2253 O   0  0  0  0  0  0  0  0  0  0  0  0
    5.1485   -5.5405   -8.5497 C   0  0  0  0  0  0  0  0  0  0  0  0
    4.3799   -4.3848   -8.2678 N   0  0  0  0  0  0  0  0  0  0  0  0
    4.9895   -3.2837   -7.6199 C   0  0  0  0  0  0  0  0  0  0  0  0
    5.2366   -3.3351   -6.2692 C   0  0  0  0  0  0  0  0  0  0  0  0
    5.8291   -2.2490   -5.6743 C   0  0  0  0  0  0  0  0  0  0  0  0
    6.1724   -1.1332   -6.3939 C   0  0  0  0  0  0  0  0  0  0  0  0
    5.9103   -1.1205   -7.7358 C   0  0  0  0  0  0  0  0  0  0  0  0
    5.3213   -2.1791   -8.3732 C   0  0  0  0  0  0  0  0  0  0  0  0
  1  2  2  0
  2  3  1  0
  3  4  1  0
  4  5  2  0
  5  6  1  0
  6  7  2  0
  7  8  1  0
  8  9  2  0
  9  4  1  0
M  END
>  <docking_score>  (2) 
-4.5739999999999998

$$$$

     RDKit          3D

  9  9  0  0  0  0  0  0  0  0999 V2000
    3.8065   -3.4448   -6.4774 O   0  0  0  0  0  0  0  0  0  0  0  0
    4.7752   -4.1157   -6.8892 C   0  0  0  0  0  0  0  0  0  0  0  0
    6.0063   -3.4741   -7.1693 N   0  0  0  0  0  0  0  0  0  0  0  0
    6.1228   -2.0763   -6.9781 C   0  0  0  0  0  0  0  0  0  0  0  0
    5.7516   -1.2147   -7.9820 C   0  0  0  0  0  0  0  0  0  0  0  0
    5.8782    0.1344   -7.7615 C   0  0  0  0  0  0  0  0  0  0  0  0
    6.3605    0.6273   -6.5762 C   0  0  0  0  0  0  0  0  0  0  0  0
    6.7191   -0.2623   -5.6016 C   0  0  0  0  0  0  0  0  0  0  0  0
    6.6110   -1.6159   -5.7751 C   0  0  0  0  0  0  0  0  0  0  0  0
  1  2  2  0
  2  3  1  0
  3  4  1  0
  4  5  2  0
  5  6  1  0
  6  7  2  0
  7  8  1  0
  8  9  2  0
  9  4  1  0
M  END
>  <docking_score>  (3) 
-4.4000000000000004

$$$$
