
     RDKit          3D

 35 35  0  0  0  0  0  0  0  0999 V2000
    3.2310    8.7052   14.9012 C   0  0  0  0  0  0  0  0  0  0  0  0
    2.9803   10.0877   14.2877 C   0  0  0  0  0  0  0  0  0  0  0  0
    2.4692   11.0194   15.3784 C   0  0  0  0  0  0  0  0  0  0  0  0
    4.3423   10.5864   13.8059 C   0  0  0  0  0  0  0  0  0  0  0  0
    5.3083    9.4465   13.7314 C   0  0  1  0  0  0  0  0  0  0  0  0
    4.7404    8.2074   13.1024 C   0  0  0  0  0  0  0  0  0  0  0  0
    4.6355    8.3858   11.6162 C   0  0  1  0  0  0  0  0  0  0  0  0
    5.9480    8.8461   11.0243 C   0  0  0  0  0  0  0  0  0  0  0  0
    4.3068    7.0349   10.9727 C   0  0  0  0  0  3  0  0  0  0  0  0
    4.2583    7.3001    9.4628 C   0  0  0  0  0  3  0  0  0  0  0  0
    3.1691    8.3558    9.2724 C   0  0  0  0  0  0  0  0  0  0  0  0
    2.7073    8.2647    7.8510 C   0  0  2  0  0  0  0  0  0  0  0  0
    3.8394    7.8290    6.9506 C   0  0  0  0  0  0  0  0  0  0  0  0
    2.2581    9.6426    7.4131 C   0  0  0  0  0  3  0  0  0  0  0  0
    2.5145    9.7502    5.9248 C   0  0  0  0  0  0  0  0  0  0  0  0
    3.8906   10.4010    5.7728 C   0  0  1  0  0  0  0  0  0  0  0  0
    4.6151    9.8101    4.5957 C   0  0  0  0  0  0  0  0  0  0  0  0
    3.6597   11.8786    5.6466 C   0  0  0  0  0  0  0  0  0  0  0  0
    4.5944   12.5388    4.6578 C   0  0  0  0  0  0  0  0  0  0  0  0
    5.5581   13.3974    5.4792 C   0  0  0  0  0  0  0  0  0  0  0  0
    6.9459   13.1215    4.9136 C   0  0  0  0  0  0  0  0  0  0  0  0
    7.7585   14.3134    4.9949 N   0  0  0  0  0  0  0  0  0  0  0  0
    8.1511   14.4687    6.3873 C   0  0  0  0  0  0  0  0  0  0  0  0
    8.2408   15.9265    6.7151 C   0  0  0  0  0  3  0  0  0  0  0  0
    8.2849   16.0743    8.2353 C   0  0  0  0  0  0  0  0  0  0  0  0
    9.7107   15.7203    8.6438 C   0  0  0  0  0  0  0  0  0  0  0  0
    9.8254   15.8514   10.1468 C   0  0  0  0  0  0  0  0  0  0  0  0
    9.4527   14.5295   10.7652 C   0  0  0  0  0  0  0  0  0  0  0  0
   10.5886   14.1216   11.6823 C   0  0  0  0  0  0  0  0  0  0  0  0
   10.0744   14.1566   13.1048 C   0  0  0  0  0  0  0  0  0  0  0  0
    8.8092   13.3236   13.1428 C   0  0  0  0  0  0  0  0  0  0  0  0
    9.0489   12.2023   14.1049 C   0  0  0  0  0  0  0  0  0  0  0  0
    8.1492   11.2656   14.2956 C   0  0  0  0  0  0  0  0  0  0  0  0
    6.8619   11.3229   13.5360 C   0  0  0  0  0  0  0  0  0  0  0  0
    6.5797    9.9014   13.0622 C   0  0  0  0  0  3  0  0  0  0  0  0
  1  2  1  0
  2  3  1  0
  2  4  1  0
  5  4  1  6
  5  6  1  0
  6  7  1  0
  7  8  1  6
  7  9  1  0
  9 10  1  0
 10 11  1  0
 11 12  1  0
 12 13  1  6
 12 14  1  0
 14 15  1  0
 15 16  1  0
 16 17  1  6
 16 18  1  0
 18 19  1  0
 19 20  1  0
 20 21  1  0
 21 22  1  0
 22 23  1  0
 23 24  1  0
 24 25  1  0
 25 26  1  0
 26 27  1  0
 27 28  1  0
 28 29  1  0
 29 30  1  0
 30 31  1  0
 31 32  1  0
 32 33  2  3
 33 34  1  0
 34 35  1  0
 35  5  1  0
M  RAD  5   9   2  10   2  14   2  24   2  35   2
M  END
>  <docking_score>  (1) 
9.8919999999999995

$$$$

     RDKit          3D

 35 35  0  0  0  0  0  0  0  0999 V2000
    9.6595    6.2598    4.9280 C   0  0  0  0  0  0  0  0  0  0  0  0
    8.2202    5.8587    5.2713 C   0  0  0  0  0  0  0  0  0  0  0  0
    8.2364    5.0320    6.5500 C   0  0  0  0  0  0  0  0  0  0  0  0
    7.4715    7.1651    5.5334 C   0  0  0  0  0  0  0  0  0  0  0  0
    6.1525    7.1502    4.8276 C   0  0  1  0  0  0  0  0  0  0  0  0
    5.1209    6.2788    5.4832 C   0  0  0  0  0  0  0  0  0  0  0  0
    4.5974    6.9435    6.7224 C   0  0  1  0  0  0  0  0  0  0  0  0
    4.1377    8.3548    6.4361 C   0  0  0  0  0  0  0  0  0  0  0  0
    3.3738    6.1707    7.2251 C   0  0  0  0  0  3  0  0  0  0  0  0
    2.8835    6.9362    8.4605 C   0  0  0  0  0  3  0  0  0  0  0  0
    4.0616    6.9287    9.4348 C   0  0  0  0  0  0  0  0  0  0  0  0
    3.5049    7.1623   10.8051 C   0  0  2  0  0  0  0  0  0  0  0  0
    2.2745    8.0362   10.7377 C   0  0  0  0  0  0  0  0  0  0  0  0
    4.5545    7.8851   11.6223 C   0  0  0  0  0  3  0  0  0  0  0  0
    3.8268    8.7502   12.6296 C   0  0  0  0  0  0  0  0  0  0  0  0
    3.6984   10.1349   11.9920 C   0  0  1  0  0  0  0  0  0  0  0  0
    2.3827   10.7573   12.3675 C   0  0  0  0  0  0  0  0  0  0  0  0
    4.8843   10.9337   12.4481 C   0  0  0  0  0  0  0  0  0  0  0  0
    4.5467   12.3805   12.7312 C   0  0  0  0  0  0  0  0  0  0  0  0
    5.2112   13.2046   11.6266 C   0  0  0  0  0  0  0  0  0  0  0  0
    4.1595   14.2066   11.1660 C   0  0  0  0  0  0  0  0  0  0  0  0
    4.7942   15.4445   10.7753 N   0  0  0  0  0  0  0  0  0  0  0  0
    5.4155   15.2158    9.4797 C   0  0  0  0  0  0  0  0  0  0  0  0
    6.6702   16.0265    9.3841 C   0  0  0  0  0  3  0  0  0  0  0  0
    7.4890   15.5053    8.2039 C   0  0  0  0  0  0  0  0  0  0  0  0
    6.8235   16.0746    6.9557 C   0  0  0  0  0  0  0  0  0  0  0  0
    7.5922   15.5980    5.7427 C   0  0  0  0  0  0  0  0  0  0  0  0
    7.0083   14.2813    5.3020 C   0  0  0  0  0  0  0  0  0  0  0  0
    6.6609   14.4088    3.8320 C   0  0  0  0  0  0  0  0  0  0  0  0
    7.5740   13.4853    3.0557 C   0  0  0  0  0  0  0  0  0  0  0  0
    7.4609   12.1121    3.6862 C   0  0  0  0  0  0  0  0  0  0  0  0
    6.9458   11.1840    2.6309 C   0  0  0  0  0  0  0  0  0  0  0  0
    6.6748    9.9285    2.9025 C   0  0  0  0  0  0  0  0  0  0  0  0
    6.8858    9.4194    4.2929 C   0  0  0  0  0  0  0  0  0  0  0  0
    5.6688    8.5632    4.6256 C   0  0  0  0  0  3  0  0  0  0  0  0
  1  2  1  0
  2  3  1  0
  2  4  1  0
  5  4  1  1
  5  6  1  0
  6  7  1  0
  7  8  1  6
  7  9  1  0
  9 10  1  0
 10 11  1  0
 11 12  1  0
 12 13  1  6
 12 14  1  0
 14 15  1  0
 15 16  1  0
 16 17  1  1
 16 18  1  0
 18 19  1  0
 19 20  1  0
 20 21  1  0
 21 22  1  0
 22 23  1  0
 23 24  1  0
 24 25  1  0
 25 26  1  0
 26 27  1  0
 27 28  1  0
 28 29  1  0
 29 30  1  0
 30 31  1  0
 31 32  1  0
 32 33  2  3
 33 34  1  0
 34 35  1  0
 35  5  1  0
M  RAD  5   9   2  10   2  14   2  24   2  35   2
M  END
>  <docking_score>  (2) 
12.101000000000001

$$$$
