
     RDKit          3D

 19 18  0  0  0  0  0  0  0  0999 V2000
   16.8692   -9.9842   -5.8400 O   0  0  0  0  0  0  0  0  0  0  0  0
   17.1091   -8.9779   -5.0066 O   0  0  0  0  0  0  0  0  0  0  0  0
   17.6209   -7.9235   -5.7600 C   0  0  0  0  0  3  0  0  0  0  0  0
   17.4553   -6.7467   -5.0686 O   0  0  0  0  0  0  0  0  0  0  0  0
   16.2430   -6.1570   -5.3530 C   0  0  2  0  0  0  0  0  0  0  0  0
   16.3312   -5.3953   -6.6421 C   0  0  0  0  0  0  0  0  0  0  0  0
   15.5574   -5.9282   -7.6464 O   0  0  0  0  0  0  0  0  0  0  0  0
   15.9104   -5.1407   -4.2148 C   0  0  1  0  0  0  0  0  0  0  0  0
   16.8738   -5.3402   -3.1158 C   0  0  0  0  0  3  0  0  0  0  0  0
   16.8529   -4.2433   -2.1240 C   0  0  0  0  0  0  0  0  0  0  0  0
   18.2501   -3.7408   -1.7732 C   0  0  0  0  0  3  0  0  0  0  0  0
   19.2151   -4.2318   -2.8089 C   0  0  0  0  0  0  0  0  0  0  0  0
   20.0659   -5.2018   -2.3674 F   0  0  0  0  0  0  0  0  0  0  0  0
   15.8338   -3.8316   -4.8480 C   0  0  0  0  0  0  0  0  0  0  0  0
   15.0226   -2.8575   -4.4881 O   0  0  0  0  0  0  0  0  0  0  0  0
   14.4805   -2.0829   -5.4808 C   0  0  2  0  0  0  0  0  0  0  0  0
   15.6208   -1.5595   -6.3472 C   0  0  0  0  0  2  0  0  0  0  0  0
   13.6238   -0.9527   -4.9927 C   0  0  0  0  0  3  0  0  0  0  0  0
   14.2430   -0.3668   -3.7233 C   0  0  0  0  0  2  0  0  0  0  0  0
  1  2  1  0
  2  3  1  0
  3  4  1  0
  4  5  1  0
  5  6  1  6
  6  7  1  0
  5  8  1  0
  8  9  1  1
  9 10  1  0
 10 11  1  0
 11 12  1  0
 12 13  1  0
  8 14  1  0
 14 15  1  0
 15 16  1  0
 16 17  1  1
 16 18  1  0
 18 19  1  0
M  RAD  6   3   2   9   2  11   2  17   3  18   2  19   3
M  END
>  <docking_score>  (1) 
-3.4609999999999999

$$$$

     RDKit          3D

 19 18  0  0  0  0  0  0  0  0999 V2000
   13.1798    0.4094   -3.9709 O   0  0  0  0  0  0  0  0  0  0  0  0
   13.8189    0.2119   -5.1187 O   0  0  0  0  0  0  0  0  0  0  0  0
   14.2110   -1.1246   -5.1546 C   0  0  0  0  0  3  0  0  0  0  0  0
   15.0142   -1.3346   -6.2506 O   0  0  0  0  0  0  0  0  0  0  0  0
   15.4743   -2.6324   -6.3018 C   0  0  2  0  0  0  0  0  0  0  0  0
   14.6767   -3.4980   -5.3720 C   0  0  0  0  0  0  0  0  0  0  0  0
   14.0878   -4.5730   -5.9956 O   0  0  0  0  0  0  0  0  0  0  0  0
   16.9595   -2.6481   -5.8195 C   0  0  1  0  0  0  0  0  0  0  0  0
   17.5120   -1.2885   -5.9678 C   0  0  0  0  0  3  0  0  0  0  0  0
   18.9900   -1.2683   -6.0158 C   0  0  0  0  0  0  0  0  0  0  0  0
   19.6055   -0.4847   -4.8605 C   0  0  0  0  0  3  0  0  0  0  0  0
   19.8962    0.9106   -5.3229 C   0  0  0  0  0  0  0  0  0  0  0  0
   20.6408    0.9796   -6.4633 F   0  0  0  0  0  0  0  0  0  0  0  0
   16.9515   -3.2587   -4.4975 C   0  0  0  0  0  0  0  0  0  0  0  0
   17.9810   -3.8490   -3.9246 O   0  0  0  0  0  0  0  0  0  0  0  0
   18.1158   -3.7144   -2.5670 C   0  0  2  0  0  0  0  0  0  0  0  0
   17.8210   -2.2628   -2.2049 C   0  0  0  0  0  2  0  0  0  0  0  0
   19.4507   -4.1346   -2.0279 C   0  0  0  0  0  3  0  0  0  0  0  0
   19.9081   -3.1219   -0.9775 C   0  0  0  0  0  2  0  0  0  0  0  0
  1  2  1  0
  2  3  1  0
  3  4  1  0
  4  5  1  0
  5  6  1  1
  6  7  1  0
  5  8  1  0
  8  9  1  1
  9 10  1  0
 10 11  1  0
 11 12  1  0
 12 13  1  0
  8 14  1  0
 14 15  1  0
 15 16  1  0
 16 17  1  6
 16 18  1  0
 18 19  1  0
M  RAD  6   3   2   9   2  11   2  17   3  18   2  19   3
M  END
>  <docking_score>  (2) 
-3.2730000000000001

$$$$

     RDKit          3D

 19 18  0  0  0  0  0  0  0  0999 V2000
   14.5173   -4.5007   -7.1765 O   0  0  0  0  0  0  0  0  0  0  0  0
   15.2038   -4.0167   -6.1473 O   0  0  0  0  0  0  0  0  0  0  0  0
   14.3125   -3.3047   -5.3474 C   0  0  0  0  0  3  0  0  0  0  0  0
   15.0178   -2.5279   -4.4589 O   0  0  0  0  0  0  0  0  0  0  0  0
   16.2510   -3.0732   -4.1754 C   0  0  2  0  0  0  0  0  0  0  0  0
   16.1818   -3.8699   -2.9064 C   0  0  0  0  0  0  0  0  0  0  0  0
   16.2038   -5.2295   -3.1122 O   0  0  0  0  0  0  0  0  0  0  0  0
   17.2670   -1.9074   -3.9575 C   0  0  1  0  0  0  0  0  0  0  0  0
   18.1345   -2.2527   -2.8157 C   0  0  0  0  0  3  0  0  0  0  0  0
   19.0543   -1.1579   -2.4381 C   0  0  0  0  0  0  0  0  0  0  0  0
   19.9937   -1.5449   -1.2998 C   0  0  0  0  0  3  0  0  0  0  0  0
   19.9062   -3.0248   -1.0824 C   0  0  0  0  0  0  0  0  0  0  0  0
   20.9528   -3.7302   -1.5989 F   0  0  0  0  0  0  0  0  0  0  0  0
   17.8833   -1.6575   -5.2530 C   0  0  0  0  0  0  0  0  0  0  0  0
   18.7651   -2.4406   -5.8409 O   0  0  0  0  0  0  0  0  0  0  0  0
   20.0078   -1.9200   -6.0942 C   0  0  2  0  0  0  0  0  0  0  0  0
   21.0133   -2.6450   -5.2063 C   0  0  0  0  0  2  0  0  0  0  0  0
   20.1117   -0.4353   -5.9099 C   0  0  0  0  0  3  0  0  0  0  0  0
   21.1870    0.1121   -6.8491 C   0  0  0  0  0  2  0  0  0  0  0  0
  1  2  1  0
  2  3  1  0
  3  4  1  0
  4  5  1  0
  5  6  1  1
  6  7  1  0
  5  8  1  0
  8  9  1  1
  9 10  1  0
 10 11  1  0
 11 12  1  0
 12 13  1  0
  8 14  1  0
 14 15  1  0
 15 16  1  0
 16 17  1  1
 16 18  1  0
 18 19  1  0
M  RAD  6   3   2   9   2  11   2  17   3  18   2  19   3
M  END
>  <docking_score>  (3) 
-3.173

$$$$
