
     RDKit          3D

 20 19  0  0  0  0  0  0  0  0999 V2000
   18.0236   -7.7403   -4.9968 C   0  0  0  0  0  0  0  0  0  0  0  0
   17.9316   -6.2350   -5.0093 C   0  0  0  0  0  0  0  0  0  0  0  0
   17.3153   -5.7037   -6.2858 C   0  0  0  0  0  0  0  0  0  0  0  0
   17.0495   -5.8070   -3.8503 C   0  0  0  0  0  0  0  0  0  0  0  0
   17.8676   -5.5030   -2.6156 C   0  0  0  0  0  0  0  0  0  0  0  0
   19.2486   -5.0323   -2.9362 C   0  0  0  0  0  0  0  0  0  0  0  0
   19.4568   -3.5823   -2.5681 C   0  0  1  0  0  0  0  0  0  0  0  0
   19.9462   -3.4007   -1.1696 C   0  0  0  0  0  0  0  0  0  0  0  0
   20.4018   -2.8884   -3.5297 C   0  0  0  0  0  3  0  0  0  0  0  0
   20.8045   -1.5775   -2.9007 C   0  0  0  0  0  3  0  0  0  0  0  0
   20.0895   -0.3950   -3.5182 C   0  0  0  0  0  0  0  0  0  0  0  0
   19.8368   -0.7016   -4.9625 C   0  0  2  0  0  0  0  0  0  0  0  0
   20.9783   -0.2203   -5.8400 C   0  0  0  0  0  0  0  0  0  0  0  0
   18.5259   -0.0839   -5.3978 C   0  0  0  0  0  0  0  0  0  0  0  0
   17.5432   -1.1677   -5.7898 C   0  0  1  0  0  0  0  0  0  0  0  0
   18.2042   -2.1893   -6.6993 C   0  0  0  0  0  0  0  0  0  0  0  0
   17.1108   -1.9101   -4.5417 C   0  0  0  0  0  0  0  0  0  0  0  0
   15.8211   -2.5546   -4.8550 C   0  0  0  0  0  0  0  0  0  0  0  0
   14.7729   -3.0958   -5.1009 C   0  0  0  0  0  0  0  0  0  0  0  0
   13.5584   -3.6970   -5.3800 O   0  0  0  0  0  0  0  0  0  0  0  0
  1  2  1  0
  2  3  1  0
  2  4  1  0
  4  5  1  0
  5  6  1  0
  6  7  1  0
  7  8  1  1
  7  9  1  0
  9 10  1  0
 10 11  1  0
 11 12  1  0
 12 13  1  6
 12 14  1  0
 14 15  1  0
 15 16  1  6
 15 17  1  0
 17 18  1  0
 18 19  3  0
 19 20  1  0
M  RAD  2   9   2  10   2
M  END
>  <docking_score>  (1) 
-3.3260000000000001

$$$$

     RDKit          3D

 20 19  0  0  0  0  0  0  0  0999 V2000
   15.5629    0.0930   -5.8058 C   0  0  0  0  0  0  0  0  0  0  0  0
   15.3411   -1.2109   -5.0812 C   0  0  0  0  0  0  0  0  0  0  0  0
   14.4266   -1.0596   -3.8845 C   0  0  0  0  0  0  0  0  0  0  0  0
   14.6893   -2.1827   -6.0485 C   0  0  0  0  0  0  0  0  0  0  0  0
   14.3232   -3.4810   -5.3653 C   0  0  0  0  0  0  0  0  0  0  0  0
   15.4057   -4.5067   -5.4504 C   0  0  0  0  0  0  0  0  0  0  0  0
   15.3284   -5.5123   -4.3261 C   0  0  1  0  0  0  0  0  0  0  0  0
   14.7941   -6.8356   -4.7639 C   0  0  0  0  0  0  0  0  0  0  0  0
   16.6729   -5.7066   -3.6523 C   0  0  0  0  0  3  0  0  0  0  0  0
   16.6193   -4.9946   -2.3232 C   0  0  0  0  0  3  0  0  0  0  0  0
   16.6316   -3.4884   -2.4722 C   0  0  0  0  0  0  0  0  0  0  0  0
   18.0579   -3.0317   -2.5028 C   0  0  2  0  0  0  0  0  0  0  0  0
   18.5092   -2.7156   -3.9174 C   0  0  0  0  0  0  0  0  0  0  0  0
   18.9480   -4.0827   -1.8761 C   0  0  0  0  0  0  0  0  0  0  0  0
   20.3073   -4.0809   -2.5442 C   0  0  1  0  0  0  0  0  0  0  0  0
   21.3548   -3.4688   -1.6300 C   0  0  0  0  0  0  0  0  0  0  0  0
   20.7308   -5.5140   -2.7946 C   0  0  0  0  0  0  0  0  0  0  0  0
   20.2869   -5.8570   -4.1593 C   0  0  0  0  0  0  0  0  0  0  0  0
   19.9400   -6.1468   -5.2762 C   0  0  0  0  0  0  0  0  0  0  0  0
   19.5201   -6.4830   -6.5509 O   0  0  0  0  0  0  0  0  0  0  0  0
  1  2  1  0
  2  3  1  0
  2  4  1  0
  4  5  1  0
  5  6  1  0
  6  7  1  0
  7  8  1  6
  7  9  1  0
  9 10  1  0
 10 11  1  0
 11 12  1  0
 12 13  1  6
 12 14  1  0
 14 15  1  0
 15 16  1  1
 15 17  1  0
 17 18  1  0
 18 19  3  0
 19 20  1  0
M  RAD  2   9   2  10   2
M  END
>  <docking_score>  (2) 
-3.2879999999999998

$$$$

     RDKit          3D

 20 19  0  0  0  0  0  0  0  0999 V2000
   13.8339   -0.5904   -4.5694 C   0  0  0  0  0  0  0  0  0  0  0  0
   14.5886   -1.4886   -5.5171 C   0  0  0  0  0  0  0  0  0  0  0  0
   15.9894   -0.9877   -5.7971 C   0  0  0  0  0  0  0  0  0  0  0  0
   14.7014   -2.8606   -4.8770 C   0  0  0  0  0  0  0  0  0  0  0  0
   14.5322   -3.9628   -5.8982 C   0  0  0  0  0  0  0  0  0  0  0  0
   14.7737   -5.3227   -5.3293 C   0  0  0  0  0  0  0  0  0  0  0  0
   16.0249   -5.9600   -5.8860 C   0  0  1  0  0  0  0  0  0  0  0  0
   16.2323   -5.6675   -7.3351 C   0  0  0  0  0  0  0  0  0  0  0  0
   17.2588   -5.5518   -5.1051 C   0  0  0  0  0  3  0  0  0  0  0  0
   18.2107   -4.8957   -6.0746 C   0  0  0  0  0  3  0  0  0  0  0  0
   18.3843   -3.4166   -5.8043 C   0  0  0  0  0  0  0  0  0  0  0  0
   19.6982   -3.2172   -5.1130 C   0  0  2  0  0  0  0  0  0  0  0  0
   20.7458   -4.1920   -5.6202 C   0  0  0  0  0  0  0  0  0  0  0  0
   19.5177   -3.3516   -3.6167 C   0  0  0  0  0  0  0  0  0  0  0  0
   19.4960   -1.9828   -2.9688 C   0  0  1  0  0  0  0  0  0  0  0  0
   20.1226   -0.9448   -3.8841 C   0  0  0  0  0  0  0  0  0  0  0  0
   18.0550   -1.5648   -2.7575 C   0  0  0  0  0  0  0  0  0  0  0  0
   17.3351   -2.7536   -2.2618 C   0  0  0  0  0  0  0  0  0  0  0  0
   16.7373   -3.7136   -1.8458 C   0  0  0  0  0  0  0  0  0  0  0  0
   16.0497   -4.8241   -1.3897 O   0  0  0  0  0  0  0  0  0  0  0  0
  1  2  1  0
  2  3  1  0
  2  4  1  0
  4  5  1  0
  5  6  1  0
  6  7  1  0
  7  8  1  6
  7  9  1  0
  9 10  1  0
 10 11  1  0
 11 12  1  0
 12 13  1  6
 12 14  1  0
 14 15  1  0
 15 16  1  6
 15 17  1  0
 17 18  1  0
 18 19  3  0
 19 20  1  0
M  RAD  2   9   2  10   2
M  END
>  <docking_score>  (3) 
-3.2570000000000001

$$$$
