
     RDKit          3D

 31 34  0  0  0  0  0  0  0  0999 V2000
   15.4353   -1.0571   -5.6509 C   0  0  0  0  0  0  0  0  0  0  0  0
   14.8458   -0.9227   -4.4699 C   0  0  0  0  0  0  0  0  0  0  0  0
   13.7925    0.1039   -4.2959 C   0  0  0  0  0  0  0  0  0  0  0  0
   15.2182   -1.7738   -3.3294 C   0  0  0  0  0  0  0  0  0  0  0  0
   16.4594   -1.2863   -2.6060 C   0  0  0  0  0  3  0  0  0  0  0  0
   17.1062   -2.4052   -1.8126 C   0  0  0  0  0  0  0  0  0  0  0  0
   18.5882   -2.3211   -1.9346 C   0  0  0  0  0  3  0  0  0  0  0  0
   19.2325   -3.4973   -2.5876 C   0  0  0  0  0  0  0  0  0  0  0  0
   19.1077   -0.9957   -2.3810 C   0  0  0  0  0  0  0  0  0  0  0  0
   19.8115   -1.0465   -3.7215 C   0  0  0  0  0  0  0  0  0  0  0  0
   19.1276   -0.1568   -4.7413 C   0  0  0  0  0  0  0  0  0  0  0  0
   19.2739   -0.7059   -6.1453 C   0  0  0  0  0  3  0  0  0  0  0  0
   18.9196   -2.1783   -6.2075 C   0  0  0  0  0  3  0  0  0  0  0  0
   18.4224   -2.5941   -4.8792 C   0  0  0  0  0  0  0  0  0  0  0  0
   18.0126   -3.9814   -4.7006 C   0  0  2  0  0  0  0  0  0  0  0  0
   18.2737   -4.4188   -3.2822 C   0  0  1  0  0  0  0  0  0  0  0  0
   18.7862   -5.8388   -3.3587 C   0  0  0  0  0  0  0  0  0  0  0  0
   19.4347   -5.8735   -4.7283 C   0  0  1  0  0  0  0  0  0  0  0  0
   19.5295   -7.2857   -5.1744 C   0  0  0  0  0  3  0  0  0  0  0  0
   20.0037   -7.4730   -6.5781 C   0  0  2  0  0  0  0  0  0  0  0  0
   20.0560   -8.9546   -6.8773 C   0  0  0  0  0  0  0  0  0  0  0  0
   18.9692   -9.3973   -7.8142 C   0  0  0  0  0  0  0  0  0  0  0  0
   17.6186   -9.4140   -7.0921 C   0  0  0  0  0  0  0  0  0  0  0  0
   17.5897   -8.1986   -6.2099 C   0  0  2  0  0  0  0  0  0  0  0  0
   16.3661   -8.0763   -5.3729 C   0  0  0  0  0  0  0  0  0  0  0  0
   21.3824   -6.9033   -6.8236 C   0  0  0  0  0  0  0  0  0  0  0  0
   19.1476   -6.8896   -7.5039 O   0  0  0  0  0  0  0  0  0  0  0  0
   17.8676   -6.9545   -7.0135 C   0  0  2  0  0  0  0  0  0  0  0  0
   17.4417   -5.7448   -6.2522 C   0  0  0  0  0  0  0  0  0  0  0  0
   18.5934   -4.9978   -5.6161 C   0  0  1  0  0  0  0  0  0  0  0  0
   19.4549   -4.4436   -6.7039 C   0  0  0  0  0  0  0  0  0  0  0  0
  1  2  2  0
  2  3  1  0
  2  4  1  0
  4  5  1  0
  5  6  1  0
  6  7  1  0
  7  8  1  0
  7  9  1  0
  9 10  1  0
 10 11  1  0
 11 12  1  0
 12 13  1  0
 13 14  1  0
 15 14  1  6
 15 16  1  0
 16 17  1  6
 18 17  1  1
 18 19  1  0
 19 20  1  0
 20 21  1  0
 21 22  1  0
 22 23  1  0
 23 24  1  0
 24 25  1  6
 20 26  1  1
 20 27  1  0
 27 28  1  0
 28 29  1  1
 29 30  1  0
 30 31  1  6
 16  8  1  0
 30 15  1  0
 30 18  1  0
 28 24  1  0
M  RAD  5   5   2   7   2  12   2  13   2  19   2
M  END
>  <docking_score>  (1) 
-4.6959999999999997

$$$$

     RDKit          3D

 31 34  0  0  0  0  0  0  0  0999 V2000
    5.9308   14.2235    3.3732 C   0  0  0  0  0  0  0  0  0  0  0  0
    6.0522   12.9843    2.9148 C   0  0  0  0  0  0  0  0  0  0  0  0
    7.3757   12.5068    2.4524 C   0  0  0  0  0  0  0  0  0  0  0  0
    4.8973   12.0751    2.8570 C   0  0  0  0  0  0  0  0  0  0  0  0
    5.2033   10.7725    2.1421 C   0  0  0  0  0  3  0  0  0  0  0  0
    4.3647    9.6352    2.6925 C   0  0  0  0  0  0  0  0  0  0  0  0
    5.2271    8.6979    3.4646 C   0  0  0  0  0  3  0  0  0  0  0  0
    5.4787    9.0968    4.8796 C   0  0  0  0  0  0  0  0  0  0  0  0
    4.9166    7.2520    3.2682 C   0  0  0  0  0  0  0  0  0  0  0  0
    4.4347    6.5641    4.5290 C   0  0  0  0  0  0  0  0  0  0  0  0
    3.0367    6.0033    4.3552 C   0  0  0  0  0  0  0  0  0  0  0  0
    2.2694    6.0081    5.6612 C   0  0  0  0  0  3  0  0  0  0  0  0
    2.3624    7.3513    6.3573 C   0  0  0  0  0  3  0  0  0  0  0  0
    3.0880    8.2856    5.4712 C   0  0  0  0  0  0  0  0  0  0  0  0
    3.2950    9.6524    5.9332 C   0  0  2  0  0  0  0  0  0  0  0  0
    4.5869   10.1953    5.3785 C   0  0  1  0  0  0  0  0  0  0  0  0
    5.2243   11.0018    6.4867 C   0  0  0  0  0  0  0  0  0  0  0  0
    4.6814   10.3255    7.7300 C   0  0  1  0  0  0  0  0  0  0  0  0
    4.7797   11.2725    8.8684 C   0  0  0  0  0  3  0  0  0  0  0  0
    4.1367   10.8068   10.1333 C   0  0  2  0  0  0  0  0  0  0  0  0
    4.3293   11.8684   11.1930 C   0  0  0  0  0  0  0  0  0  0  0  0
    3.0608   12.6039   11.5168 C   0  0  0  0  0  0  0  0  0  0  0  0
    2.6952   13.5604   10.3779 C   0  0  0  0  0  0  0  0  0  0  0  0
    3.0002   12.8376    9.0970 C   0  0  2  0  0  0  0  0  0  0  0  0
    2.7649   13.6410    7.8674 C   0  0  0  0  0  0  0  0  0  0  0  0
    4.7216    9.5163   10.6604 C   0  0  0  0  0  0  0  0  0  0  0  0
    2.7697   10.6075    9.9849 O   0  0  0  0  0  0  0  0  0  0  0  0
    2.2973   11.5052    9.0608 C   0  0  2  0  0  0  0  0  0  0  0  0
    2.2575   10.9826    7.6645 C   0  0  0  0  0  0  0  0  0  0  0  0
    3.2778    9.8974    7.3989 C   0  0  1  0  0  0  0  0  0  0  0  0
    2.9275    8.7064    8.2304 C   0  0  0  0  0  0  0  0  0  0  0  0
  1  2  2  0
  2  3  1  0
  2  4  1  0
  4  5  1  0
  5  6  1  0
  6  7  1  0
  7  8  1  0
  7  9  1  0
  9 10  1  0
 10 11  1  0
 11 12  1  0
 12 13  1  0
 13 14  1  0
 15 14  1  1
 15 16  1  0
 16 17  1  1
 18 17  1  6
 18 19  1  0
 19 20  1  0
 20 21  1  0
 21 22  1  0
 22 23  1  0
 23 24  1  0
 24 25  1  6
 20 26  1  1
 20 27  1  0
 27 28  1  0
 28 29  1  6
 29 30  1  0
 30 31  1  1
 16  8  1  0
 30 15  1  0
 30 18  1  0
 28 24  1  0
M  RAD  5   5   2   7   2  12   2  13   2  19   2
M  END
>  <docking_score>  (2) 
-3.4100000000000001

$$$$

     RDKit          3D

 31 34  0  0  0  0  0  0  0  0999 V2000
    7.9252   14.2277    1.6223 C   0  0  0  0  0  0  0  0  0  0  0  0
    8.3532   14.9719    2.6339 C   0  0  0  0  0  0  0  0  0  0  0  0
    9.8046   15.2238    2.7879 C   0  0  0  0  0  0  0  0  0  0  0  0
    7.4138   15.5520    3.6060 C   0  0  0  0  0  0  0  0  0  0  0  0
    5.9798   15.1112    3.3805 C   0  0  0  0  0  3  0  0  0  0  0  0
    5.4400   14.3652    4.5854 C   0  0  0  0  0  0  0  0  0  0  0  0
    5.9766   12.9759    4.6028 C   0  0  0  0  0  3  0  0  0  0  0  0
    5.9538   12.3103    5.9374 C   0  0  0  0  0  0  0  0  0  0  0  0
    5.5317   12.1163    3.4676 C   0  0  0  0  0  0  0  0  0  0  0  0
    4.6930   10.9323    3.9031 C   0  0  0  0  0  0  0  0  0  0  0  0
    3.3086   10.9760    3.2859 C   0  0  0  0  0  0  0  0  0  0  0  0
    2.2749   10.3418    4.1934 C   0  0  0  0  0  3  0  0  0  0  0  0
    2.3842   10.8634    5.6123 C   0  0  0  0  0  3  0  0  0  0  0  0
    3.4062   11.9307    5.6387 C   0  0  0  0  0  0  0  0  0  0  0  0
    3.6812   12.5897    6.9094 C   0  0  2  0  0  0  0  0  0  0  0  0
    5.1243   13.0204    6.9665 C   0  0  1  0  0  0  0  0  0  0  0  0
    5.5963   12.7528    8.3773 C   0  0  0  0  0  0  0  0  0  0  0  0
    4.7042   11.6034    8.8025 C   0  0  1  0  0  0  0  0  0  0  0  0
    4.6674   11.5529   10.2853 C   0  0  0  0  0  3  0  0  0  0  0  0
    3.7013   10.5690   10.8588 C   0  0  2  0  0  0  0  0  0  0  0  0
    3.7881   10.6290   12.3674 C   0  0  0  0  0  0  0  0  0  0  0  0
    2.5868   11.2766   12.9938 C   0  0  0  0  0  0  0  0  0  0  0  0
    2.6149   12.7897   12.7583 C   0  0  0  0  0  0  0  0  0  0  0  0
    3.1026   12.9954   11.3526 C   0  0  2  0  0  0  0  0  0  0  0  0
    3.2568   14.4215   10.9585 C   0  0  0  0  0  0  0  0  0  0  0  0
    3.9787    9.1442   10.4364 C   0  0  0  0  0  0  0  0  0  0  0  0
    2.3886   10.8541   10.5040 O   0  0  0  0  0  0  0  0  0  0  0  0
    2.2576   12.2144   10.3795 C   0  0  2  0  0  0  0  0  0  0  0  0
    2.4645   12.7251    8.9937 C   0  0  0  0  0  0  0  0  0  0  0  0
    3.3673   11.8454    8.1569 C   0  0  1  0  0  0  0  0  0  0  0  0
    2.6864   10.5317    7.9497 C   0  0  0  0  0  0  0  0  0  0  0  0
  1  2  2  0
  2  3  1  0
  2  4  1  0
  4  5  1  0
  5  6  1  0
  6  7  1  0
  7  8  1  0
  7  9  1  0
  9 10  1  0
 10 11  1  0
 11 12  1  0
 12 13  1  0
 13 14  1  0
 15 14  1  6
 15 16  1  0
 16 17  1  1
 18 17  1  1
 18 19  1  0
 19 20  1  0
 20 21  1  0
 21 22  1  0
 22 23  1  0
 23 24  1  0
 24 25  1  6
 20 26  1  6
 20 27  1  0
 27 28  1  0
 28 29  1  6
 29 30  1  0
 30 31  1  6
 16  8  1  0
 30 15  1  0
 30 18  1  0
 28 24  1  0
M  RAD  5   5   2   7   2  12   2  13   2  19   2
M  END
>  <docking_score>  (3) 
-2.8919999999999999

$$$$
