
     RDKit          3D

 20 20  0  0  0  0  0  0  0  0999 V2000
   16.5718   -2.5405   -3.5083 O   0  0  0  0  0  0  0  0  0  0  0  0
   16.4856   -2.8936   -2.1553 C   0  0  0  0  0  0  0  0  0  0  0  0
   17.1029   -4.2587   -1.9719 C   0  0  0  0  0  3  0  0  0  0  0  0
   17.0966   -4.9652   -3.2392 N   0  0  0  0  0  0  0  0  0  0  0  0
   18.1081   -6.0052   -3.1529 C   0  0  2  0  0  0  0  0  0  0  0  0
   19.4937   -5.3739   -3.0008 C   0  0  0  0  0  0  0  0  0  0  0  0
   19.8575   -4.8629   -4.2401 O   0  0  0  0  0  0  0  0  0  0  0  0
   18.1557   -6.8207   -4.4272 C   0  0  1  0  0  0  0  0  0  0  0  0
   18.8689   -7.9730   -4.1791 O   0  0  0  0  0  0  0  0  0  0  0  0
   16.7935   -7.1039   -4.9771 C   0  0  2  0  0  0  0  0  0  0  0  0
   16.9506   -7.9331   -6.0905 O   0  0  0  0  0  0  0  0  0  0  0  0
   16.0942   -5.8980   -5.2981 N   0  0  0  0  0  0  0  0  0  0  0  0
   16.3932   -5.4402   -6.6374 C   0  0  1  0  0  0  0  0  0  0  0  0
   16.4064   -6.4711   -7.5584 F   0  0  0  0  0  0  0  0  0  0  0  0
   15.3710   -4.4332   -7.1220 C   0  0  0  0  0  0  0  0  0  0  0  0
   14.6906   -3.8359   -6.0846 O   0  0  0  0  0  0  0  0  0  0  0  0
   15.2939   -2.6142   -5.8234 C   0  0  1  0  0  0  0  0  0  0  0  0
   15.0777   -1.6441   -6.9676 C   0  0  0  0  0  0  0  0  0  0  0  0
   14.7035   -2.0042   -4.5769 C   0  0  0  0  0  0  0  0  0  0  0  0
   15.7502   -1.5460   -3.7964 O   0  0  0  0  0  0  0  0  0  0  0  0
  1  2  1  0
  2  3  1  0
  3  4  1  0
  4  5  1  0
  5  6  1  6
  6  7  1  0
  5  8  1  0
  8  9  1  1
  8 10  1  0
 10 11  1  6
 10 12  1  0
 12 13  1  0
 13 14  1  6
 13 15  1  0
 15 16  1  0
 16 17  1  0
 17 18  1  6
 17 19  1  0
 19 20  1  0
 20  1  1  0
M  RAD  1   3   2
M  END
>  <docking_score>  (1) 
-5.1289999999999996

$$$$

     RDKit          3D

 20 20  0  0  0  0  0  0  0  0999 V2000
   15.5192   -2.9006   -6.8424 O   0  0  0  0  0  0  0  0  0  0  0  0
   16.3468   -3.1652   -7.9414 C   0  0  0  0  0  0  0  0  0  0  0  0
   17.2096   -4.3612   -7.6199 C   0  0  0  0  0  3  0  0  0  0  0  0
   17.3022   -4.5160   -6.1801 N   0  0  0  0  0  0  0  0  0  0  0  0
   17.6824   -5.8950   -5.9230 C   0  0  2  0  0  0  0  0  0  0  0  0
   16.5779   -6.8389   -6.4032 C   0  0  0  0  0  0  0  0  0  0  0  0
   15.4858   -6.6644   -5.5629 O   0  0  0  0  0  0  0  0  0  0  0  0
   17.8337   -6.1465   -4.4381 C   0  0  1  0  0  0  0  0  0  0  0  0
   18.5055   -7.3367   -4.2653 O   0  0  0  0  0  0  0  0  0  0  0  0
   18.5011   -5.0102   -3.7298 C   0  0  2  0  0  0  0  0  0  0  0  0
   18.6715   -5.3852   -2.3948 O   0  0  0  0  0  0  0  0  0  0  0  0
   17.7528   -3.7979   -3.8574 N   0  0  0  0  0  0  0  0  0  0  0  0
   16.7458   -3.6735   -2.8263 C   0  0  1  0  0  0  0  0  0  0  0  0
   17.2170   -4.0405   -1.5795 F   0  0  0  0  0  0  0  0  0  0  0  0
   16.2483   -2.2482   -2.7041 C   0  0  0  0  0  0  0  0  0  0  0  0
   16.4830   -1.5112   -3.8432 O   0  0  0  0  0  0  0  0  0  0  0  0
   15.3206   -1.5105   -4.6004 C   0  0  1  0  0  0  0  0  0  0  0  0
   14.2231   -0.7231   -3.9131 C   0  0  0  0  0  0  0  0  0  0  0  0
   15.5806   -0.8740   -5.9427 C   0  0  0  0  0  0  0  0  0  0  0  0
   15.0096   -1.6829   -6.9095 O   0  0  0  0  0  0  0  0  0  0  0  0
  1  2  1  0
  2  3  1  0
  3  4  1  0
  4  5  1  0
  5  6  1  1
  6  7  1  0
  5  8  1  0
  8  9  1  6
  8 10  1  0
 10 11  1  1
 10 12  1  0
 12 13  1  0
 13 14  1  1
 13 15  1  0
 15 16  1  0
 16 17  1  0
 17 18  1  1
 17 19  1  0
 19 20  1  0
 20  1  1  0
M  RAD  1   3   2
M  END
>  <docking_score>  (2) 
-4.8810000000000002

$$$$

     RDKit          3D

 20 20  0  0  0  0  0  0  0  0999 V2000
   14.8402   -3.5568   -5.1922 O   0  0  0  0  0  0  0  0  0  0  0  0
   14.8181   -3.8767   -6.5560 C   0  0  0  0  0  0  0  0  0  0  0  0
   15.6016   -5.1496   -6.7665 C   0  0  0  0  0  3  0  0  0  0  0  0
   16.5267   -5.3345   -5.6641 N   0  0  0  0  0  0  0  0  0  0  0  0
   16.8727   -6.7456   -5.6297 C   0  0  2  0  0  0  0  0  0  0  0  0
   15.6295   -7.5800   -5.3137 C   0  0  0  0  0  0  0  0  0  0  0  0
   14.9923   -6.9857   -4.2320 O   0  0  0  0  0  0  0  0  0  0  0  0
   17.8638   -7.0327   -4.5223 C   0  0  1  0  0  0  0  0  0  0  0  0
   18.4065   -8.2805   -4.7377 O   0  0  0  0  0  0  0  0  0  0  0  0
   18.9115   -5.9715   -4.4020 C   0  0  2  0  0  0  0  0  0  0  0  0
   19.8180   -6.3809   -3.4209 O   0  0  0  0  0  0  0  0  0  0  0  0
   18.3369   -4.6956   -4.1056 N   0  0  0  0  0  0  0  0  0  0  0  0
   18.1641   -4.4982   -2.6829 C   0  0  1  0  0  0  0  0  0  0  0  0
   19.2577   -4.9251   -1.9529 F   0  0  0  0  0  0  0  0  0  0  0  0
   17.9561   -3.0365   -2.3456 C   0  0  0  0  0  0  0  0  0  0  0  0
   17.5187   -2.3056   -3.4275 O   0  0  0  0  0  0  0  0  0  0  0  0
   16.1392   -2.1897   -3.3370 C   0  0  1  0  0  0  0  0  0  0  0  0
   15.7415   -1.3186   -2.1623 C   0  0  0  0  0  0  0  0  0  0  0  0
   15.5920   -1.5580   -4.5924 C   0  0  0  0  0  0  0  0  0  0  0  0
   14.4923   -2.2977   -4.9906 O   0  0  0  0  0  0  0  0  0  0  0  0
  1  2  1  0
  2  3  1  0
  3  4  1  0
  4  5  1  0
  5  6  1  1
  6  7  1  0
  5  8  1  0
  8  9  1  6
  8 10  1  0
 10 11  1  1
 10 12  1  0
 12 13  1  0
 13 14  1  1
 13 15  1  0
 15 16  1  0
 16 17  1  0
 17 18  1  1
 17 19  1  0
 19 20  1  0
 20  1  1  0
M  RAD  1   3   2
M  END
>  <docking_score>  (3) 
-4.7880000000000003

$$$$
