
     RDKit          3D

 26 26  0  0  0  0  0  0  0  0999 V2000
   16.1098   -5.0426   -7.8126 C   0  0  0  0  0  0  0  0  0  0  0  0
   16.7521   -5.9920   -6.7697 C   0  0  1  0  0  0  0  0  0  0  0  0
   17.0483   -7.2674   -7.4101 C   0  0  0  0  0  0  0  0  0  0  0  0
   17.8116   -8.2058   -6.5135 C   0  0  2  0  0  0  0  0  0  0  0  0
   16.9967   -8.7848   -5.5346 O   0  0  0  0  0  0  0  0  0  0  0  0
   18.9749   -7.4915   -5.8341 C   0  0  2  0  0  0  0  0  0  0  0  0
   19.4998   -8.3877   -4.8866 O   0  0  0  0  0  0  0  0  0  0  0  0
   18.4206   -6.3090   -5.1055 C   0  0  1  0  0  0  0  0  0  0  0  0
   19.2633   -5.7711   -4.1817 O   0  0  0  0  0  0  0  0  0  0  0  0
   17.9760   -5.2194   -6.2134 C   0  0  1  0  0  0  0  0  0  0  0  0
   19.0151   -5.4472   -7.2362 N   0  0  0  0  0  0  0  0  0  0  0  0
   19.3943   -4.1622   -7.9335 C   0  0  0  0  0  3  0  0  0  0  0  0
   19.6464   -3.2409   -6.6240 C   0  0  0  0  0  0  0  0  0  0  0  0
   19.4730   -1.8179   -7.1991 C   0  0  1  0  0  0  0  0  0  0  0  0
   18.8062   -2.0608   -8.4658 O   0  0  0  0  0  0  0  0  0  0  0  0
   18.2708   -1.2150   -6.4297 C   0  0  0  0  0  3  0  0  0  0  0  0
   17.3134   -2.1082   -5.8916 O   0  0  0  0  0  0  0  0  0  0  0  0
   16.4161   -1.2881   -5.1337 C   0  0  1  0  0  0  0  0  0  0  0  0
   15.1459   -1.4575   -5.6981 O   0  0  0  0  0  0  0  0  0  0  0  0
   16.2351   -2.3054   -3.8801 C   0  0  2  0  0  0  0  0  0  0  0  0
   15.6264   -1.6242   -2.7901 O   0  0  0  0  0  0  0  0  0  0  0  0
   17.7516   -2.6201   -3.4967 C   0  0  0  0  0  3  0  0  0  0  0  0
   17.9244   -1.6513   -2.2600 C   0  0  0  0  0  0  0  0  0  0  0  0
   19.1949   -1.0815   -2.6424 O   0  0  0  0  0  0  0  0  0  0  0  0
   19.5980   -0.7453   -1.3300 O   0  0  0  0  0  0  0  0  0  0  0  0
   20.2747   -1.9894   -1.1140 O   0  0  0  0  0  0  0  0  0  0  0  0
  2  1  1  6
  2  3  1  0
  3  4  1  0
  4  5  1  1
  4  6  1  0
  6  7  1  1
  6  8  1  0
  8  9  1  1
  8 10  1  0
 10 11  1  6
 11 12  1  0
 12 13  1  0
 13 14  1  0
 14 15  1  6
 14 16  1  0
 16 17  1  0
 17 18  1  0
 18 19  1  6
 18 20  1  0
 20 21  1  1
 20 22  1  0
 22 23  1  0
 23 24  1  0
 24 25  1  0
 25 26  1  0
 10  2  1  0
M  RAD  3  12   2  16   2  22   2
M  END
>  <docking_score>  (1) 
-3.0110000000000001

$$$$

     RDKit          3D

 26 26  0  0  0  0  0  0  0  0999 V2000
    6.8238   10.0047    5.3477 C   0  0  0  0  0  0  0  0  0  0  0  0
    5.9096   10.2127    4.1137 C   0  0  1  0  0  0  0  0  0  0  0  0
    4.5651    9.7525    4.4380 C   0  0  0  0  0  0  0  0  0  0  0  0
    3.5690   10.0517    3.3494 C   0  0  2  0  0  0  0  0  0  0  0  0
    3.6989    9.1853    2.2584 O   0  0  0  0  0  0  0  0  0  0  0  0
    3.7039   11.4900    2.8615 C   0  0  2  0  0  0  0  0  0  0  0  0
    2.8755   11.6118    1.7323 O   0  0  0  0  0  0  0  0  0  0  0  0
    5.1209   11.6934    2.4287 C   0  0  1  0  0  0  0  0  0  0  0  0
    5.3219   12.7990    1.6605 O   0  0  0  0  0  0  0  0  0  0  0  0
    6.0377   11.7168    3.7596 C   0  0  1  0  0  0  0  0  0  0  0  0
    5.1103   12.3684    4.7046 N   0  0  0  0  0  0  0  0  0  0  0  0
    5.6200   13.7247    5.1314 C   0  0  0  0  0  3  0  0  0  0  0  0
    5.9558   13.3815    6.6796 C   0  0  0  0  0  0  0  0  0  0  0  0
    6.8161   14.5954    7.0941 C   0  0  1  0  0  0  0  0  0  0  0  0
    6.2477   15.6769    6.3097 O   0  0  0  0  0  0  0  0  0  0  0  0
    6.2727   15.0208    8.4814 C   0  0  0  0  0  3  0  0  0  0  0  0
    6.9646   14.5691    9.6308 O   0  0  0  0  0  0  0  0  0  0  0  0
    5.9436   14.2256   10.5752 C   0  0  1  0  0  0  0  0  0  0  0  0
    5.8910   12.8270   10.6165 O   0  0  0  0  0  0  0  0  0  0  0  0
    6.8349   14.4499   11.9148 C   0  0  2  0  0  0  0  0  0  0  0  0
    7.6336   15.6182   11.7728 O   0  0  0  0  0  0  0  0  0  0  0  0
    7.7935   13.1749   11.8835 C   0  0  0  0  0  3  0  0  0  0  0  0
    9.0896   13.7949   12.5419 C   0  0  0  0  0  0  0  0  0  0  0  0
   10.0438   13.3128   11.5711 O   0  0  0  0  0  0  0  0  0  0  0  0
   11.1700   13.9258   12.1658 O   0  0  0  0  0  0  0  0  0  0  0  0
   10.6755   13.7645   13.5006 O   0  0  0  0  0  0  0  0  0  0  0  0
  2  1  1  1
  2  3  1  0
  3  4  1  0
  4  5  1  6
  4  6  1  0
  6  7  1  6
  6  8  1  0
  8  9  1  1
  8 10  1  0
 10 11  1  1
 11 12  1  0
 12 13  1  0
 13 14  1  0
 14 15  1  6
 14 16  1  0
 16 17  1  0
 17 18  1  0
 18 19  1  6
 18 20  1  0
 20 21  1  6
 20 22  1  0
 22 23  1  0
 23 24  1  0
 24 25  1  0
 25 26  1  0
 10  2  1  0
M  RAD  3  12   2  16   2  22   2
M  END
>  <docking_score>  (2) 
-2.774

$$$$

     RDKit          3D

 26 26  0  0  0  0  0  0  0  0999 V2000
   16.9559   -4.6956   -2.2387 C   0  0  0  0  0  0  0  0  0  0  0  0
   16.0783   -3.8391   -3.1863 C   0  0  1  0  0  0  0  0  0  0  0  0
   16.8844   -2.7490   -3.7215 C   0  0  0  0  0  0  0  0  0  0  0  0
   16.1583   -1.9481   -4.7695 C   0  0  2  0  0  0  0  0  0  0  0  0
   15.2041   -1.0888   -4.2140 O   0  0  0  0  0  0  0  0  0  0  0  0
   15.4765   -2.8604   -5.7833 C   0  0  2  0  0  0  0  0  0  0  0  0
   14.6793   -2.0352   -6.5956 O   0  0  0  0  0  0  0  0  0  0  0  0
   14.5771   -3.7876   -5.0295 C   0  0  1  0  0  0  0  0  0  0  0  0
   13.6531   -4.4253   -5.7993 O   0  0  0  0  0  0  0  0  0  0  0  0
   15.5155   -4.8350   -4.2330 C   0  0  1  0  0  0  0  0  0  0  0  0
   16.6242   -4.9781   -5.1962 N   0  0  0  0  0  0  0  0  0  0  0  0
   16.7145   -6.3888   -5.7283 C   0  0  0  0  0  3  0  0  0  0  0  0
   17.0016   -6.0427   -7.2856 C   0  0  0  0  0  0  0  0  0  0  0  0
   18.4552   -5.5232   -7.2323 C   0  0  1  0  0  0  0  0  0  0  0  0
   19.1310   -6.3537   -8.2129 O   0  0  0  0  0  0  0  0  0  0  0  0
   18.4409   -4.1995   -8.0374 C   0  0  0  0  0  3  0  0  0  0  0  0
   19.1265   -3.0864   -7.4943 O   0  0  0  0  0  0  0  0  0  0  0  0
   20.3604   -3.6119   -6.9908 C   0  0  1  0  0  0  0  0  0  0  0  0
   21.3825   -3.0313   -7.7515 O   0  0  0  0  0  0  0  0  0  0  0  0
   20.4722   -2.6377   -5.6956 C   0  0  2  0  0  0  0  0  0  0  0  0
   19.7157   -3.1778   -4.6190 O   0  0  0  0  0  0  0  0  0  0  0  0
   19.7399   -1.3197   -6.2173 C   0  0  0  0  0  3  0  0  0  0  0  0
   19.7169   -0.4763   -4.8809 C   0  0  0  0  0  0  0  0  0  0  0  0
   19.3805    0.7993   -5.4682 O   0  0  0  0  0  0  0  0  0  0  0  0
   20.3697    1.5361   -4.7781 O   0  0  0  0  0  0  0  0  0  0  0  0
   20.2890    2.6601   -5.6626 O   0  0  0  0  0  0  0  0  0  0  0  0
  2  1  1  1
  2  3  1  0
  3  4  1  0
  4  5  1  1
  4  6  1  0
  6  7  1  6
  6  8  1  0
  8  9  1  6
  8 10  1  0
 10 11  1  6
 11 12  1  0
 12 13  1  0
 13 14  1  0
 14 15  1  6
 14 16  1  0
 16 17  1  0
 17 18  1  0
 18 19  1  6
 18 20  1  0
 20 21  1  1
 20 22  1  0
 22 23  1  0
 23 24  1  0
 24 25  1  0
 25 26  1  0
 10  2  1  0
M  RAD  3  12   2  16   2  22   2
M  END
>  <docking_score>  (3) 
-1.9319999999999999

$$$$
