
     RDKit          3D

 25 27  0  0  0  0  0  0  0  0999 V2000
   14.7880   -1.5122   -4.1828 C   0  0  0  0  0  0  0  0  0  0  0  0
   15.3133   -2.2811   -5.3449 C   0  0  0  0  0  0  0  0  0  0  0  0
   15.1597   -1.4685   -6.6377 C   0  0  0  0  0  0  0  0  0  0  0  0
   14.5623   -3.6118   -5.4994 C   0  0  0  0  0  0  0  0  0  0  0  0
   15.3497   -4.7136   -4.8594 C   0  0  0  0  0  0  0  0  0  0  0  0
   15.3550   -5.9922   -5.6354 C   0  0  0  0  0  0  0  0  0  0  0  0
   16.4032   -6.9460   -5.1210 C   0  0  1  0  0  0  0  0  0  0  0  0
   17.0858   -7.6647   -6.2612 C   0  0  0  0  0  2  0  0  0  0  0  0
   17.4431   -6.2989   -4.2803 C   0  0  2  0  0  0  0  0  0  0  0  0
   16.9130   -5.4692   -3.1848 C   0  0  0  0  0  0  0  0  0  0  0  0
   17.5008   -4.2977   -2.9790 C   0  0  0  0  0  0  0  0  0  0  0  0
   16.9719   -3.4525   -1.8753 C   0  0  0  0  0  3  0  0  0  0  0  0
   16.9321   -1.9876   -2.3413 C   0  0  0  0  0  3  0  0  0  0  0  0
   18.0375   -1.6861   -3.2884 C   0  0  0  0  0  0  0  0  0  0  0  0
   17.6645   -1.5823   -4.7269 C   0  0  2  0  0  0  0  0  0  0  0  0
   16.7703   -2.6636   -5.2467 C   0  0  2  0  0  0  0  0  0  0  0  0
   17.2127   -2.9107   -6.6977 C   0  0  0  0  0  3  0  0  0  0  0  0
   18.3762   -1.9710   -6.9138 C   0  0  0  0  0  3  0  0  0  0  0  0
   18.9509   -1.8982   -5.5174 C   0  0  2  0  0  0  0  0  0  0  0  0
   19.3057   -3.3055   -5.1070 C   0  0  0  0  0  0  0  0  0  0  0  0
   18.4916   -4.2943   -5.3048 C   0  0  0  0  0  0  0  0  0  0  0  0
   18.5853   -5.7033   -5.0128 C   0  0  0  0  0  3  0  0  0  0  0  0
   19.8269   -6.0454   -4.5251 O   0  0  0  0  0  0  0  0  0  0  0  0
   20.2632   -7.2870   -5.0041 C   0  0  0  0  0  0  0  0  0  0  0  0
   20.8167   -7.0613   -6.3876 C   0  0  0  0  0  2  0  0  0  0  0  0
  1  2  1  0
  2  3  1  0
  2  4  1  0
  4  5  1  0
  5  6  1  0
  6  7  1  0
  7  8  1  6
  7  9  1  0
  9 10  1  0
 10 11  2  3
 11 12  1  0
 12 13  1  0
 13 14  1  0
 15 14  1  1
 15 16  1  0
 16 17  1  6
 17 18  1  0
 19 18  1  6
 19 20  1  0
 20 21  2  3
 21 22  1  0
 22 23  1  0
 23 24  1  0
 24 25  1  0
 16  2  1  0
  9 22  1  6
 19 15  1  0
M  RAD  7   8   3  12   2  13   2  17   2  18   2  22   2  25   3
M  END
>  <docking_score>  (1) 
-6.2060000000000004

$$$$

     RDKit          3D

 25 27  0  0  0  0  0  0  0  0999 V2000
   16.0234   -5.2574   -8.4004 C   0  0  0  0  0  0  0  0  0  0  0  0
   16.9428   -5.5783   -7.2737 C   0  0  0  0  0  0  0  0  0  0  0  0
   17.9241   -6.6852   -7.6824 C   0  0  0  0  0  0  0  0  0  0  0  0
   16.1508   -6.0426   -6.0425 C   0  0  0  0  0  0  0  0  0  0  0  0
   15.9606   -4.8932   -5.1011 C   0  0  0  0  0  0  0  0  0  0  0  0
   16.1199   -5.2518   -3.6578 C   0  0  0  0  0  0  0  0  0  0  0  0
   16.2353   -4.0223   -2.7929 C   0  0  1  0  0  0  0  0  0  0  0  0
   17.2631   -4.2226   -1.7037 C   0  0  0  0  0  2  0  0  0  0  0  0
   16.5790   -2.7887   -3.5457 C   0  0  2  0  0  0  0  0  0  0  0  0
   15.7176   -2.5251   -4.7112 C   0  0  0  0  0  0  0  0  0  0  0  0
   16.3177   -2.1207   -5.8232 C   0  0  0  0  0  0  0  0  0  0  0  0
   15.4562   -1.8527   -7.0057 C   0  0  0  0  0  3  0  0  0  0  0  0
   16.1506   -2.3973   -8.2650 C   0  0  0  0  0  3  0  0  0  0  0  0
   17.6301   -2.2994   -8.1577 C   0  0  0  0  0  0  0  0  0  0  0  0
   18.3568   -3.5684   -7.8731 C   0  0  2  0  0  0  0  0  0  0  0  0
   17.7786   -4.4194   -6.7866 C   0  0  2  0  0  0  0  0  0  0  0  0
   18.9793   -5.0679   -6.0795 C   0  0  0  0  0  3  0  0  0  0  0  0
   20.1930   -4.5114   -6.7872 C   0  0  0  0  0  3  0  0  0  0  0  0
   19.6837   -3.1511   -7.2062 C   0  0  2  0  0  0  0  0  0  0  0  0
   19.2604   -2.4274   -5.9524 C   0  0  0  0  0  0  0  0  0  0  0  0
   18.5499   -3.0123   -5.0399 C   0  0  0  0  0  0  0  0  0  0  0  0
   18.0240   -2.5563   -3.7771 C   0  0  0  0  0  3  0  0  0  0  0  0
   18.4634   -1.2889   -3.4653 O   0  0  0  0  0  0  0  0  0  0  0  0
   18.9338   -1.1975   -2.1493 C   0  0  0  0  0  0  0  0  0  0  0  0
   20.2112   -1.9938   -2.0765 C   0  0  0  0  0  2  0  0  0  0  0  0
  1  2  1  0
  2  3  1  0
  2  4  1  0
  4  5  1  0
  5  6  1  0
  6  7  1  0
  7  8  1  1
  7  9  1  0
  9 10  1  0
 10 11  2  3
 11 12  1  0
 12 13  1  0
 13 14  1  0
 15 14  1  1
 15 16  1  0
 16 17  1  6
 17 18  1  0
 19 18  1  1
 19 20  1  0
 20 21  2  3
 21 22  1  0
 22 23  1  0
 23 24  1  0
 24 25  1  0
 16  2  1  0
  9 22  1  6
 19 15  1  0
M  RAD  7   8   3  12   2  13   2  17   2  18   2  22   2  25   3
M  END
>  <docking_score>  (2) 
-5.6630000000000003

$$$$

     RDKit          3D

 25 27  0  0  0  0  0  0  0  0999 V2000
   19.4577   -0.8998   -4.0912 C   0  0  0  0  0  0  0  0  0  0  0  0
   19.4937   -2.0835   -3.1882 C   0  0  0  0  0  0  0  0  0  0  0  0
   19.4099   -1.6402   -1.7213 C   0  0  0  0  0  0  0  0  0  0  0  0
   20.7879   -2.8843   -3.3947 C   0  0  0  0  0  0  0  0  0  0  0  0
   20.5285   -4.0341   -4.3189 C   0  0  0  0  0  0  0  0  0  0  0  0
   21.2101   -5.3045   -3.9210 C   0  0  0  0  0  0  0  0  0  0  0  0
   20.6685   -6.4850   -4.6868 C   0  0  1  0  0  0  0  0  0  0  0  0
   20.5406   -7.6962   -3.7928 C   0  0  0  0  0  2  0  0  0  0  0  0
   19.3536   -6.2314   -5.3298 C   0  0  2  0  0  0  0  0  0  0  0  0
   19.3017   -5.0105   -6.1521 C   0  0  0  0  0  0  0  0  0  0  0  0
   18.2184   -4.2534   -6.0368 C   0  0  0  0  0  0  0  0  0  0  0  0
   18.1572   -3.0179   -6.8628 C   0  0  0  0  0  3  0  0  0  0  0  0
   17.5708   -1.8770   -6.0146 C   0  0  0  0  0  3  0  0  0  0  0  0
   16.5760   -2.3829   -5.0326 C   0  0  0  0  0  0  0  0  0  0  0  0
   17.0306   -2.4680   -3.6165 C   0  0  2  0  0  0  0  0  0  0  0  0
   18.3794   -3.0792   -3.4020 C   0  0  2  0  0  0  0  0  0  0  0  0
   18.2821   -3.8536   -2.0780 C   0  0  0  0  0  3  0  0  0  0  0  0
   16.8519   -3.6704   -1.6260 C   0  0  0  0  0  3  0  0  0  0  0  0
   16.1435   -3.5430   -2.9554 C   0  0  2  0  0  0  0  0  0  0  0  0
   16.4334   -4.7996   -3.7376 C   0  0  0  0  0  0  0  0  0  0  0  0
   17.6299   -5.2925   -3.8085 C   0  0  0  0  0  0  0  0  0  0  0  0
   18.1642   -6.4544   -4.4746 C   0  0  0  0  0  3  0  0  0  0  0  0
   17.1729   -7.2179   -5.0498 O   0  0  0  0  0  0  0  0  0  0  0  0
   17.6885   -8.2279   -5.8718 C   0  0  0  0  0  0  0  0  0  0  0  0
   17.0554   -9.5240   -5.4354 C   0  0  0  0  0  2  0  0  0  0  0  0
  1  2  1  0
  2  3  1  0
  2  4  1  0
  4  5  1  0
  5  6  1  0
  6  7  1  0
  7  8  1  1
  7  9  1  0
  9 10  1  0
 10 11  2  3
 11 12  1  0
 12 13  1  0
 13 14  1  0
 15 14  1  6
 15 16  1  0
 16 17  1  1
 17 18  1  0
 19 18  1  1
 19 20  1  0
 20 21  2  3
 21 22  1  0
 22 23  1  0
 23 24  1  0
 24 25  1  0
 16  2  1  0
  9 22  1  1
 19 15  1  0
M  RAD  7   8   3  12   2  13   2  17   2  18   2  22   2  25   3
M  END
>  <docking_score>  (3) 
-5.391

$$$$
