
     RDKit          3D

 41 43  0  0  0  0  0  0  0  0999 V2000
    8.4788   12.2318    5.3918 C   0  0  0  0  0  0  0  0  0  0  0  0
    8.3303   13.5379    4.6754 C   0  0  1  0  0  0  0  0  0  0  0  0
    9.0555   13.5991    3.3616 C   0  0  0  0  0  0  0  0  0  0  0  0
    8.1419   13.7344    2.1784 C   0  0  2  0  0  0  0  0  0  0  0  0
    8.9378   14.0922    1.0783 O   0  0  0  0  0  0  0  0  0  0  0  0
    7.1038   14.8079    2.3368 C   0  0  2  0  0  0  0  0  0  0  0  0
    7.2236   15.8390    1.4251 O   0  0  0  0  0  0  0  0  0  0  0  0
    6.9738   15.3125    3.7469 C   0  0  1  0  0  0  0  0  0  0  0  0
    5.8272   16.0747    3.8623 O   0  0  0  0  0  0  0  0  0  0  0  0
    6.9451   14.0806    4.6422 C   0  0  1  0  0  0  0  0  0  0  0  0
    6.0644   13.1132    3.9792 N   0  0  0  0  0  0  0  0  0  0  0  0
    4.8863   13.6957    3.4562 C   0  0  0  0  0  3  0  0  0  0  0  0
    3.9733   14.1941    4.5142 C   0  0  1  0  0  0  0  0  0  0  0  0
    2.7077   13.4460    4.6481 C   0  0  0  0  0  0  0  0  0  0  0  0
    2.4517   12.5566    3.8809 O   0  0  0  0  0  0  0  0  0  0  0  0
    4.5614   14.5784    5.6943 O   0  0  0  0  0  0  0  0  0  0  0  0
    4.8986   13.4446    6.4644 C   0  0  1  0  0  0  0  0  0  0  0  0
    4.1817   13.3846    7.6506 O   0  0  0  0  0  0  0  0  0  0  0  0
    4.6204   12.2091    5.6008 C   0  0  2  0  0  0  0  0  0  0  0  0
    4.2813   11.2000    6.4761 O   0  0  0  0  0  0  0  0  0  0  0  0
    5.9147   11.9322    4.8160 C   0  0  1  0  0  0  0  0  0  0  0  0
    5.7837   10.8035    3.9887 O   0  0  0  0  0  0  0  0  0  0  0  0
    5.9943    9.6756    4.5814 O   0  0  0  0  0  0  0  0  0  0  0  0
    5.3776    9.5384    5.7520 O   0  0  0  0  0  0  0  0  0  0  0  0
    4.8245    8.2189    5.5526 C   0  0  2  0  0  0  0  0  0  0  0  0
    4.7124    7.9663    4.2489 O   0  0  0  0  0  0  0  0  0  0  0  0
    3.8022    8.0955    6.4382 O   0  0  0  0  0  0  0  0  0  0  0  0
    4.4401    8.2863    7.6168 O   0  0  0  0  0  0  0  0  0  0  0  0
    3.9499    7.5826    8.5847 C   0  0  0  0  0  3  0  0  0  0  0  0
    4.4530    7.9309    9.8342 O   0  0  0  0  0  0  0  0  0  0  0  0
    3.4315    8.6205   10.5476 C   0  0  2  0  0  0  0  0  0  0  0  0
    2.4249    8.7304    9.5718 F   0  0  0  0  0  0  0  0  0  0  0  0
    3.9543   10.0796   10.6212 C   0  0  0  0  0  3  0  0  0  0  0  0
    4.3789   10.3537   12.0792 C   0  0  1  0  0  0  0  0  0  0  0  0
    4.7802   11.6897   12.4573 C   0  0  0  0  0  3  0  0  0  0  0  0
    3.3872   11.0150   12.9123 C   0  0  2  0  0  0  0  0  0  0  0  0
    3.2050   10.9997   14.3922 C   0  0  0  0  0  0  0  0  0  0  0  0
    3.0002    9.7103   14.9040 O   0  0  0  0  0  0  0  0  0  0  0  0
    2.2576    9.9306   16.0925 C   0  0  0  0  0  3  0  0  0  0  0  0
    2.8337   10.6574   17.1864 C   0  0  0  0  0  0  0  0  0  0  0  0
    3.0927    9.9203   18.3053 C   0  0  0  0  0  3  0  0  0  0  0  0
  2  1  1  6
  2  3  1  0
  3  4  1  0
  4  5  1  6
  4  6  1  0
  6  7  1  6
  6  8  1  0
  8  9  1  6
  8 10  1  0
 10 11  1  6
 11 12  1  0
 12 13  1  0
 13 14  1  1
 14 15  2  0
 13 16  1  0
 16 17  1  0
 17 18  1  1
 17 19  1  0
 19 20  1  1
 19 21  1  0
 21 22  1  6
 22 23  1  0
 23 24  1  0
 24 25  1  0
 25 26  1  6
 25 27  1  0
 27 28  1  0
 28 29  1  0
 29 30  1  0
 30 31  1  0
 31 32  1  6
 31 33  1  0
 34 33  1  6
 34 35  1  0
 34 36  1  0
 36 37  1  1
 37 38  1  0
 38 39  1  0
 39 40  1  0
 40 41  2  0
 10  2  1  0
 21 11  1  0
 36 35  1  0
M  RAD  6  12   2  29   2  33   2  35   2  39   2  41   2
M  END
>  <docking_score>  (1) 
-1.246

$$$$

     RDKit          3D

 41 43  0  0  0  0  0  0  0  0999 V2000
   17.7154   -2.2817   -7.3613 C   0  0  0  0  0  0  0  0  0  0  0  0
   18.6130   -2.6193   -6.2117 C   0  0  1  0  0  0  0  0  0  0  0  0
   19.0209   -1.4322   -5.3870 C   0  0  0  0  0  0  0  0  0  0  0  0
   18.4976   -1.4712   -3.9806 C   0  0  2  0  0  0  0  0  0  0  0  0
   19.1964   -0.4962   -3.2507 O   0  0  0  0  0  0  0  0  0  0  0  0
   18.7242   -2.7843   -3.2882 C   0  0  2  0  0  0  0  0  0  0  0  0
   19.5556   -2.6990   -2.1881 O   0  0  0  0  0  0  0  0  0  0  0  0
   19.1322   -3.8909   -4.2204 C   0  0  1  0  0  0  0  0  0  0  0  0
   19.0440   -5.1043   -3.5657 O   0  0  0  0  0  0  0  0  0  0  0  0
   18.1965   -3.8082   -5.4194 C   0  0  1  0  0  0  0  0  0  0  0  0
   16.8539   -3.5787   -4.8759 N   0  0  0  0  0  0  0  0  0  0  0  0
   16.4437   -4.5743   -3.9586 C   0  0  0  0  0  3  0  0  0  0  0  0
   16.2409   -5.8971   -4.5992 C   0  0  1  0  0  0  0  0  0  0  0  0
   14.8388   -6.3561   -4.6503 C   0  0  0  0  0  0  0  0  0  0  0  0
   14.5787   -7.5142   -4.4594 O   0  0  0  0  0  0  0  0  0  0  0  0
   16.9878   -6.1497   -5.7237 O   0  0  0  0  0  0  0  0  0  0  0  0
   16.4355   -5.4816   -6.8377 C   0  0  1  0  0  0  0  0  0  0  0  0
   15.9673   -6.3650   -7.7995 O   0  0  0  0  0  0  0  0  0  0  0  0
   15.2984   -4.5947   -6.3182 C   0  0  2  0  0  0  0  0  0  0  0  0
   14.3804   -4.5116   -7.3428 O   0  0  0  0  0  0  0  0  0  0  0  0
   15.9381   -3.2429   -5.9558 C   0  0  1  0  0  0  0  0  0  0  0  0
   14.9814   -2.3334   -5.4731 O   0  0  0  0  0  0  0  0  0  0  0  0
   15.4581   -1.4062   -4.7109 O   0  0  0  0  0  0  0  0  0  0  0  0
   15.1358   -0.1676   -5.0732 O   0  0  0  0  0  0  0  0  0  0  0  0
   13.7604   -0.4020   -5.4476 C   0  0  2  0  0  0  0  0  0  0  0  0
   13.6661   -0.5318   -6.7705 O   0  0  0  0  0  0  0  0  0  0  0  0
   13.0126    0.4648   -4.7169 O   0  0  0  0  0  0  0  0  0  0  0  0
   12.6573   -0.3058   -3.6623 O   0  0  0  0  0  0  0  0  0  0  0  0
   11.5602   -0.9629   -3.8542 C   0  0  0  0  0  3  0  0  0  0  0  0
   10.5138   -0.1723   -4.3188 O   0  0  0  0  0  0  0  0  0  0  0  0
    9.3154   -0.9386   -4.2532 C   0  0  2  0  0  0  0  0  0  0  0  0
    9.1722   -1.3610   -5.5869 F   0  0  0  0  0  0  0  0  0  0  0  0
    8.1983    0.1329   -4.1444 C   0  0  0  0  0  3  0  0  0  0  0  0
    6.9401   -0.4276   -4.8399 C   0  0  1  0  0  0  0  0  0  0  0  0
    6.4694    0.1965   -6.0556 C   0  0  0  0  0  3  0  0  0  0  0  0
    7.1812   -1.2507   -6.0144 C   0  0  2  0  0  0  0  0  0  0  0  0
    6.3485   -2.3254   -6.6271 C   0  0  0  0  0  0  0  0  0  0  0  0
    5.2706   -2.7101   -5.8168 O   0  0  0  0  0  0  0  0  0  0  0  0
    4.7967   -3.9010   -6.4249 C   0  0  0  0  0  3  0  0  0  0  0  0
    5.4115   -4.4026   -7.6196 C   0  0  0  0  0  0  0  0  0  0  0  0
    5.5070   -5.7614   -7.7009 C   0  0  0  0  0  3  0  0  0  0  0  0
  2  1  1  6
  2  3  1  0
  3  4  1  0
  4  5  1  1
  4  6  1  0
  6  7  1  1
  6  8  1  0
  8  9  1  1
  8 10  1  0
 10 11  1  1
 11 12  1  0
 12 13  1  0
 13 14  1  6
 14 15  2  0
 13 16  1  0
 16 17  1  0
 17 18  1  6
 17 19  1  0
 19 20  1  6
 19 21  1  0
 21 22  1  1
 22 23  1  0
 23 24  1  0
 24 25  1  0
 25 26  1  6
 25 27  1  0
 27 28  1  0
 28 29  1  0
 29 30  1  0
 30 31  1  0
 31 32  1  6
 31 33  1  0
 34 33  1  6
 34 35  1  0
 34 36  1  0
 36 37  1  1
 37 38  1  0
 38 39  1  0
 39 40  1  0
 40 41  2  0
 10  2  1  0
 21 11  1  0
 36 35  1  0
M  RAD  6  12   2  29   2  33   2  35   2  39   2  41   2
M  END
>  <docking_score>  (2) 
-0.44600000000000001

$$$$

     RDKit          3D

 41 43  0  0  0  0  0  0  0  0999 V2000
    4.1203   10.4724    7.8812 C   0  0  0  0  0  0  0  0  0  0  0  0
    3.8757   10.2197    9.3363 C   0  0  1  0  0  0  0  0  0  0  0  0
    4.7373    9.1372    9.9208 C   0  0  0  0  0  0  0  0  0  0  0  0
    5.6954    9.6320   10.9650 C   0  0  2  0  0  0  0  0  0  0  0  0
    6.1975    8.5048   11.6351 O   0  0  0  0  0  0  0  0  0  0  0  0
    5.0573   10.5110   12.0020 C   0  0  2  0  0  0  0  0  0  0  0  0
    5.0944    9.9850   13.2790 O   0  0  0  0  0  0  0  0  0  0  0  0
    3.6801   10.9809   11.6241 C   0  0  1  0  0  0  0  0  0  0  0  0
    3.2855   11.9929   12.4779 O   0  0  0  0  0  0  0  0  0  0  0  0
    3.7675   11.4438   10.1756 C   0  0  1  0  0  0  0  0  0  0  0  0
    5.0106   12.2143   10.0664 N   0  0  0  0  0  0  0  0  0  0  0  0
    5.4625   12.7261   11.3052 C   0  0  0  0  0  3  0  0  0  0  0  0
    4.5615   13.7659   11.8603 C   0  0  1  0  0  0  0  0  0  0  0  0
    5.1256   15.1298   11.8863 C   0  0  0  0  0  0  0  0  0  0  0  0
    4.4366   16.0704   11.5937 O   0  0  0  0  0  0  0  0  0  0  0  0
    3.2385   13.6794   11.5018 O   0  0  0  0  0  0  0  0  0  0  0  0
    3.0549   14.1650   10.1893 C   0  0  1  0  0  0  0  0  0  0  0  0
    2.2667   15.3062   10.1582 O   0  0  0  0  0  0  0  0  0  0  0  0
    4.4455   14.4518    9.6118 C   0  0  2  0  0  0  0  0  0  0  0  0
    4.2821   15.4904    8.7207 O   0  0  0  0  0  0  0  0  0  0  0  0
    4.9152   13.1439    8.9509 C   0  0  1  0  0  0  0  0  0  0  0  0
    6.1871   13.2882    8.3704 O   0  0  0  0  0  0  0  0  0  0  0  0
    6.7358   14.4420    8.5589 O   0  0  0  0  0  0  0  0  0  0  0  0
    5.9753   15.4811    8.2254 O   0  0  0  0  0  0  0  0  0  0  0  0
    6.6985   15.9113    7.0512 C   0  0  2  0  0  0  0  0  0  0  0  0
    5.9367   15.7600    5.9683 O   0  0  0  0  0  0  0  0  0  0  0  0
    7.9540   15.4072    7.1700 O   0  0  0  0  0  0  0  0  0  0  0  0
    8.4853   15.7155    5.9638 O   0  0  0  0  0  0  0  0  0  0  0  0
    8.9612   14.6899    5.3361 C   0  0  0  0  0  3  0  0  0  0  0  0
    9.0158   14.8601    3.9563 O   0  0  0  0  0  0  0  0  0  0  0  0
    8.0706   13.9760    3.3622 C   0  0  2  0  0  0  0  0  0  0  0  0
    6.9304   14.2019    4.1537 F   0  0  0  0  0  0  0  0  0  0  0  0
    8.5179   12.5739    3.8538 C   0  0  0  0  0  3  0  0  0  0  0  0
    7.6262   11.5250    3.1568 C   0  0  1  0  0  0  0  0  0  0  0  0
    6.8389   10.6208    3.9640 C   0  0  0  0  0  3  0  0  0  0  0  0
    6.2060   11.8342    3.1098 C   0  0  2  0  0  0  0  0  0  0  0  0
    5.1517   11.3851    2.1556 C   0  0  0  0  0  0  0  0  0  0  0  0
    4.5634   12.4463    1.4526 O   0  0  0  0  0  0  0  0  0  0  0  0
    3.3047   12.6160    2.0845 C   0  0  0  0  0  3  0  0  0  0  0  0
    2.6222   11.4937    2.6603 C   0  0  0  0  0  0  0  0  0  0  0  0
    2.2696   11.6344    3.9711 C   0  0  0  0  0  3  0  0  0  0  0  0
  2  1  1  6
  2  3  1  0
  3  4  1  0
  4  5  1  1
  4  6  1  0
  6  7  1  1
  6  8  1  0
  8  9  1  1
  8 10  1  0
 10 11  1  1
 11 12  1  0
 12 13  1  0
 13 14  1  6
 14 15  2  0
 13 16  1  0
 16 17  1  0
 17 18  1  1
 17 19  1  0
 19 20  1  6
 19 21  1  0
 21 22  1  1
 22 23  1  0
 23 24  1  0
 24 25  1  0
 25 26  1  6
 25 27  1  0
 27 28  1  0
 28 29  1  0
 29 30  1  0
 30 31  1  0
 31 32  1  1
 31 33  1  0
 34 33  1  1
 34 35  1  0
 34 36  1  0
 36 37  1  6
 37 38  1  0
 38 39  1  0
 39 40  1  0
 40 41  2  0
 10  2  1  0
 21 11  1  0
 36 35  1  0
M  RAD  6  12   2  29   2  33   2  35   2  39   2  41   2
M  END
>  <docking_score>  (3) 
1.591

$$$$
