
     RDKit          3D

 54 61  0  0  0  0  0  0  0  0999 V2000
   17.2050    4.8635   -5.0755 O   0  0  0  0  0  0  0  0  0  0  0  0
   17.3113    3.6552   -5.4644 C   0  0  0  0  0  0  0  0  0  0  0  0
   18.5576    3.2915   -6.1224 C   0  0  0  0  0  0  0  0  0  0  0  0
   19.4476    4.2248   -6.5796 C   0  0  0  0  0  0  0  0  0  0  0  0
   20.6428    3.9171   -7.1893 C   0  0  0  0  0  0  0  0  0  0  0  0
   20.9253    2.5662   -7.3222 C   0  0  0  0  0  0  0  0  0  0  0  0
   20.0511    1.6351   -6.8707 C   0  0  0  0  0  0  0  0  0  0  0  0
   18.8460    1.9454   -6.2592 C   0  0  0  0  0  0  0  0  0  0  0  0
   18.0167    0.9033   -5.8477 N   0  0  0  0  0  0  0  0  0  0  0  0
   16.7748    0.7799   -6.4663 O   0  0  0  0  0  0  0  0  0  0  0  0
   16.0008   -0.3338   -6.3000 C   0  0  0  0  0  0  0  0  0  0  0  0
   15.4175   -0.7680   -7.3752 C   0  0  0  0  0  0  0  0  0  0  0  0
   15.2159   -2.1697   -7.9828 C   0  0  0  0  0  0  0  0  0  0  0  0
   18.3515   -0.0141   -4.8340 C   0  0  0  0  0  0  0  0  0  0  0  0
   17.4358   -1.2096   -4.6700 C   0  0  1  0  0  0  0  0  0  0  0  0
   15.9792   -0.8476   -4.8672 C   0  0  1  0  0  0  0  0  0  0  0  0
   15.4597    0.1885   -4.0068 C   0  0  0  0  0  0  0  0  0  0  0  0
   14.4981    0.8227   -3.8542 C   0  0  0  0  0  0  0  0  0  0  0  0
   13.2898    1.4672   -3.8330 C   0  0  0  0  0  0  0  0  0  0  0  0
   12.1722    0.8138   -4.2940 C   0  0  0  0  0  0  0  0  0  0  0  0
   12.4056   -0.5696   -4.7907 C   0  0  0  0  0  0  0  0  0  0  0  0
   13.5643   -0.9958   -5.1370 C   0  0  0  0  0  0  0  0  0  0  0  0
   17.8418   -2.3625   -5.5515 C   0  0  1  0  0  0  0  0  0  0  0  0
   18.6544   -3.3275   -4.7464 C   0  0  0  0  0  0  0  0  0  0  0  0
   16.7005   -3.1270   -6.1415 C   0  0  0  0  0  0  0  0  0  0  0  0
   16.1386   -3.1221   -7.3619 C   0  0  0  0  0  0  0  0  0  0  0  0
   16.4912   -4.2276   -8.1822 C   0  0  0  0  0  0  0  0  0  0  0  0
   15.7708   -5.2782   -8.4784 C   0  0  0  0  0  0  0  0  0  0  0  0
   14.3913   -5.4883   -7.9669 C   0  0  0  0  0  0  0  0  0  0  0  0
   14.3447   -5.6123   -6.5898 C   0  0  0  0  0  0  0  0  0  0  0  0
   15.5249   -5.5208   -5.8761 C   0  0  0  0  0  0  0  0  0  0  0  0
   16.6918   -5.4811   -5.8424 C   0  0  0  0  0  0  0  0  0  0  0  0
   17.7349   -5.5180   -6.8304 C   0  0  0  0  0  0  0  0  0  0  0  0
   18.5537   -6.7199   -6.8922 C   0  0  0  0  0  0  0  0  0  0  0  0
   19.9997   -6.6234   -8.1472 C   0  0  0  0  0  0  0  0  0  0  0  0
   20.0359   -5.5518   -8.7232 C   0  0  0  0  0  0  0  0  0  0  0  0
   19.1900   -4.6060   -8.5332 C   0  0  0  0  0  0  0  0  0  0  0  0
   18.4600   -5.0908   -7.6647 C   0  0  0  0  0  0  0  0  0  0  0  0
   18.8831   -6.6649   -7.1939 C   0  0  0  0  0  0  0  0  0  0  0  0
   19.9675   -7.5193   -7.6639 C   0  0  0  0  0  0  0  0  0  0  0  0
   19.9934   -8.7907   -7.0253 C   0  0  0  0  0  0  0  0  0  0  0  0
   20.2281   -9.0938   -5.6240 O   0  0  0  0  0  0  0  0  0  0  0  0
   18.8952   -8.5552   -4.9212 C   0  0  1  0  0  0  0  0  0  0  0  0
   18.2023   -7.9075   -6.2714 C   0  0  0  0  0  0  0  0  0  0  0  0
   17.9003   -9.1278   -5.5432 C   0  0  0  0  0  0  0  0  0  0  0  0
   17.1238  -10.3051   -5.5776 C   0  0  0  0  0  0  0  0  0  0  0  0
   16.3760  -10.9160   -6.4189 C   0  0  0  0  0  0  0  0  0  0  0  0
   16.1323  -10.4330   -7.7473 O   0  0  0  0  0  0  0  0  0  0  0  0
   15.7080  -11.3631   -8.7280 C   0  0  0  0  0  0  0  0  0  0  0  0
   16.5283  -12.5906   -8.7155 C   0  0  0  0  0  0  0  0  0  0  0  0
   17.8101  -12.6074   -8.4363 C   0  0  0  0  0  0  0  0  0  0  0  0
   18.7357  -11.6990   -8.1073 C   0  0  0  0  0  0  0  0  0  0  0  0
   19.6198  -10.9850   -7.7690 C   0  0  0  0  0  0  0  0  0  0  0  0
   19.7274   -9.6184   -7.9242 N   0  0  0  0  0  0  0  0  0  0  0  0
  1  2  2  0
  2  3  1  0
  3  4  2  0
  4  5  1  0
  5  6  2  0
  6  7  1  0
  7  8  2  0
  8  9  1  0
  9 10  1  0
 10 11  1  0
 11 12  2  3
 12 13  1  0
  9 14  1  0
 15 14  1  6
 15 16  1  0
 16 17  1  1
 17 18  2  3
 18 19  1  0
 19 20  2  3
 20 21  1  0
 21 22  2  0
 15 23  1  0
 23 24  1  1
 23 25  1  0
 25 26  2  3
 26 27  1  0
 27 28  2  3
 28 29  1  0
 29 30  2  3
 30 31  1  0
 31 32  2  3
 32 33  1  0
 33 34  1  0
 34 35  2  0
 35 36  1  0
 36 37  2  0
 37 38  1  0
 38 39  1  0
 39 40  2  0
 40 41  1  0
 41 42  1  0
 43 42  1  6
 43 44  1  0
 44 45  2  0
 45 46  1  0
 46 47  2  3
 47 48  1  0
 48 49  1  0
 49 50  1  0
 50 51  2  3
 51 52  1  0
 52 53  2  3
 53 54  1  0
  8  3  1  0
 16 11  1  0
 26 13  1  0
 38 33  2  0
 44 34  1  0
 40 35  1  0
 41 54  2  3
 45 43  1  0
M  END
>  <docking_score>  (1) 
18.992999999999999

$$$$

     RDKit          3D

 54 61  0  0  0  0  0  0  0  0999 V2000
    3.3648   -3.5635   -5.9994 O   0  0  0  0  0  0  0  0  0  0  0  0
    3.9867   -3.2399   -7.0630 C   0  0  0  0  0  0  0  0  0  0  0  0
    4.9981   -4.1743   -7.5343 C   0  0  0  0  0  0  0  0  0  0  0  0
    4.6797   -5.3680   -8.1226 C   0  0  0  0  0  0  0  0  0  0  0  0
    5.6087   -6.2665   -8.5961 C   0  0  0  0  0  0  0  0  0  0  0  0
    6.9373   -5.8964   -8.4538 C   0  0  0  0  0  0  0  0  0  0  0  0
    7.2620   -4.7157   -7.8746 C   0  0  0  0  0  0  0  0  0  0  0  0
    6.3260   -3.8122   -7.3952 C   0  0  0  0  0  0  0  0  0  0  0  0
    6.7763   -2.6333   -6.8029 N   0  0  0  0  0  0  0  0  0  0  0  0
    6.2197   -2.2686   -5.5792 O   0  0  0  0  0  0  0  0  0  0  0  0
    6.7579   -1.2692   -4.8185 C   0  0  0  0  0  0  0  0  0  0  0  0
    6.8092   -1.5102   -3.5441 C   0  0  0  0  0  0  0  0  0  0  0  0
    7.8876   -1.2956   -2.4645 C   0  0  0  0  0  0  0  0  0  0  0  0
    7.7407   -1.7839   -7.3770 C   0  0  0  0  0  0  0  0  0  0  0  0
    8.2734   -0.6698   -6.4998 C   0  0  1  0  0  0  0  0  0  0  0  0
    7.1949   -0.0584   -5.6311 C   0  0  1  0  0  0  0  0  0  0  0  0
    6.0483    0.4779   -6.3246 C   0  0  0  0  0  0  0  0  0  0  0  0
    5.4243    1.4557   -6.3937 C   0  0  0  0  0  0  0  0  0  0  0  0
    4.8180    2.6824   -6.3369 C   0  0  0  0  0  0  0  0  0  0  0  0
    5.0799    3.5120   -5.2731 C   0  0  0  0  0  0  0  0  0  0  0  0
    6.0217    2.9651   -4.2587 C   0  0  0  0  0  0  0  0  0  0  0  0
    7.2822    2.8597   -4.4685 C   0  0  0  0  0  0  0  0  0  0  0  0
    9.4592   -1.1088   -5.6799 C   0  0  1  0  0  0  0  0  0  0  0  0
   10.7147   -0.6785   -6.3714 C   0  0  0  0  0  0  0  0  0  0  0  0
    9.5005   -0.5475   -4.2948 C   0  0  0  0  0  0  0  0  0  0  0  0
    9.1889   -1.0663   -3.0952 C   0  0  0  0  0  0  0  0  0  0  0  0
   10.3068   -1.4474   -2.3050 C   0  0  0  0  0  0  0  0  0  0  0  0
   11.5745   -1.2203   -2.5330 C   0  0  0  0  0  0  0  0  0  0  0  0
   12.0668   -0.4876   -3.7286 C   0  0  0  0  0  0  0  0  0  0  0  0
   13.4432   -0.5385   -3.8577 C   0  0  0  0  0  0  0  0  0  0  0  0
   14.1715   -1.2388   -2.9145 C   0  0  0  0  0  0  0  0  0  0  0  0
   15.1912   -1.6416   -2.5114 C   0  0  0  0  0  0  0  0  0  0  0  0
   16.5571   -1.5591   -2.9509 C   0  0  0  0  0  0  0  0  0  0  0  0
   17.1874   -2.7896   -3.4063 C   0  0  0  0  0  0  0  0  0  0  0  0
   19.0446   -2.6068   -3.8453 C   0  0  0  0  0  0  0  0  0  0  0  0
   19.4462   -1.4705   -3.6746 C   0  0  0  0  0  0  0  0  0  0  0  0
   18.7078   -0.5011   -3.2731 C   0  0  0  0  0  0  0  0  0  0  0  0
   17.6196   -1.0609   -3.1158 C   0  0  0  0  0  0  0  0  0  0  0  0
   17.6210   -2.7134   -3.4999 C   0  0  0  0  0  0  0  0  0  0  0  0
   18.7063   -3.5568   -3.9874 C   0  0  0  0  0  0  0  0  0  0  0  0
   18.3110   -4.9068   -4.2020 C   0  0  0  0  0  0  0  0  0  0  0  0
   17.8580   -5.8823   -3.2253 O   0  0  0  0  0  0  0  0  0  0  0  0
   16.4150   -5.3244   -2.8166 C   0  0  1  0  0  0  0  0  0  0  0  0
   16.4740   -3.9379   -3.7092 C   0  0  0  0  0  0  0  0  0  0  0  0
   15.7529   -5.1791   -3.9324 C   0  0  0  0  0  0  0  0  0  0  0  0
   14.9579   -5.8754   -4.8671 C   0  0  0  0  0  0  0  0  0  0  0  0
   14.6096   -5.7416   -6.0922 C   0  0  0  0  0  0  0  0  0  0  0  0
   15.0405   -4.6489   -6.9156 O   0  0  0  0  0  0  0  0  0  0  0  0
   15.0090   -4.8201   -8.3215 C   0  0  0  0  0  0  0  0  0  0  0  0
   15.6046   -6.1066   -8.7340 C   0  0  0  0  0  0  0  0  0  0  0  0
   16.6146   -6.6728   -8.1172 C   0  0  0  0  0  0  0  0  0  0  0  0
   17.3817   -6.3834   -7.0597 C   0  0  0  0  0  0  0  0  0  0  0  0
   18.0876   -6.2444   -6.1173 C   0  0  0  0  0  0  0  0  0  0  0  0
   18.3938   -5.0839   -5.4371 N   0  0  0  0  0  0  0  0  0  0  0  0
  1  2  2  0
  2  3  1  0
  3  4  2  0
  4  5  1  0
  5  6  2  0
  6  7  1  0
  7  8  2  0
  8  9  1  0
  9 10  1  0
 10 11  1  0
 11 12  2  3
 12 13  1  0
  9 14  1  0
 15 14  1  1
 15 16  1  0
 16 17  1  6
 17 18  2  3
 18 19  1  0
 19 20  2  3
 20 21  1  0
 21 22  2  0
 15 23  1  0
 23 24  1  6
 23 25  1  0
 25 26  2  3
 26 27  1  0
 27 28  2  3
 28 29  1  0
 29 30  2  3
 30 31  1  0
 31 32  2  3
 32 33  1  0
 33 34  1  0
 34 35  2  0
 35 36  1  0
 36 37  2  0
 37 38  1  0
 38 39  1  0
 39 40  2  0
 40 41  1  0
 41 42  1  0
 43 42  1  6
 43 44  1  0
 44 45  2  0
 45 46  1  0
 46 47  2  3
 47 48  1  0
 48 49  1  0
 49 50  1  0
 50 51  2  3
 51 52  1  0
 52 53  2  3
 53 54  1  0
  8  3  1  0
 16 11  1  0
 26 13  1  0
 38 33  2  0
 44 34  1  0
 40 35  1  0
 41 54  2  3
 45 43  1  0
M  END
>  <docking_score>  (2) 
20.998000000000001

$$$$
