
     RDKit          3D

 28 29  0  0  0  0  0  0  0  0999 V2000
   16.5677   -1.6024   -3.6193 C   0  0  2  0  0  0  0  0  0  0  0  0
   16.8666   -1.4760   -5.0930 C   0  0  2  0  0  0  0  0  0  0  0  0
   17.6001   -0.1724   -5.3561 C   0  0  0  0  0  0  0  0  0  0  0  0
   15.5643   -1.5186   -5.8755 C   0  0  0  0  0  0  0  0  0  0  0  0
   15.8267   -2.2197   -7.1750 C   0  0  0  0  0  0  0  0  0  0  0  0
   14.9410   -3.4580   -7.2757 C   0  0  0  0  0  0  0  0  0  0  0  0
   15.4108   -4.2511   -8.4939 C   0  0  1  0  0  0  0  0  0  0  0  0
   16.8798   -4.0290   -8.7395 C   0  0  0  0  0  0  0  0  0  0  0  0
   15.1012   -5.7145   -8.2841 C   0  0  0  0  0  3  0  0  0  0  0  0
   16.3800   -6.4225   -7.8350 C   0  0  0  0  0  0  0  0  0  0  0  0
   17.0101   -5.5457   -6.7814 C   0  0  0  0  0  0  0  0  0  0  0  0
   18.3063   -6.1013   -6.2596 C   0  0  2  0  0  0  0  0  0  0  0  0
   18.8890   -7.1744   -7.1214 C   0  0  2  0  0  0  0  0  0  0  0  0
   18.5783   -8.5586   -6.6507 C   0  0  0  0  0  0  0  0  0  0  0  0
   20.3148   -6.9631   -7.4986 C   0  0  0  0  0  2  0  0  0  0  0  0
   18.1175   -6.6492   -4.8624 C   0  0  0  0  0  0  0  0  0  0  0  0
   19.3630   -6.2875   -4.0725 C   0  0  2  0  0  0  0  0  0  0  0  0
   20.1752   -7.5209   -3.8107 C   0  0  0  0  0  0  0  0  0  0  0  0
   19.0081   -5.5960   -2.9413 O   0  0  0  0  0  0  0  0  0  0  0  0
   18.9732   -4.2145   -3.2146 C   0  0  0  0  0  0  0  0  0  0  0  0
   20.1932   -3.5802   -2.6306 C   0  0  1  0  0  0  0  0  0  0  0  0
   21.3787   -3.8952   -3.5236 C   0  0  0  0  0  0  0  0  0  0  0  0
   20.0918   -2.0914   -2.4783 C   0  0  0  0  0  0  0  0  0  0  0  0
   18.8894   -1.5145   -3.1251 C   0  0  0  0  0  0  0  0  0  0  0  0
   17.7798   -2.1719   -2.9749 N   0  0  0  0  0  4  0  0  0  0  0  0
   16.4705   -2.8072   -2.8860 C   0  0  0  0  0  0  0  0  0  0  0  0
   20.4231   -4.1688   -1.2497 C   0  0  0  0  0  0  0  0  0  0  0  0
   20.0649   -3.3064   -0.2359 O   0  0  0  0  0  1  0  0  0  0  0  0
  1  2  1  0
  2  3  1  1
  2  4  1  0
  4  5  1  0
  5  6  1  0
  6  7  1  0
  7  8  1  1
  7  9  1  0
  9 10  1  0
 10 11  1  0
 12 11  1  6
 12 13  1  0
 13 14  1  1
 13 15  1  0
 12 16  1  0
 16 17  1  0
 17 18  1  1
 17 19  1  0
 19 20  1  0
 20 21  1  0
 21 22  1  6
 21 23  1  0
 23 24  1  0
 24 25  2  3
 25 26  1  0
 21 27  1  0
 27 28  1  0
  1 26  1  6
 25  1  1  0
M  CHG  2  25   1  28  -1
M  RAD  2   9   2  15   3
M  END
>  <docking_score>  (1) 
-4.7060000000000004

$$$$

     RDKit          3D

 28 29  0  0  0  0  0  0  0  0999 V2000
   15.0559   -6.0354   -6.7599 C   0  0  2  0  0  0  0  0  0  0  0  0
   16.4750   -6.0657   -7.2719 C   0  0  2  0  0  0  0  0  0  0  0  0
   16.4997   -5.6585   -8.7348 C   0  0  0  0  0  0  0  0  0  0  0  0
   17.0410   -7.4659   -7.1017 C   0  0  0  0  0  0  0  0  0  0  0  0
   18.5010   -7.3405   -6.7827 C   0  0  0  0  0  0  0  0  0  0  0  0
   18.7845   -7.9788   -5.4262 C   0  0  0  0  0  0  0  0  0  0  0  0
   20.2211   -7.6203   -5.0501 C   0  0  1  0  0  0  0  0  0  0  0  0
   20.6155   -6.2986   -5.6543 C   0  0  0  0  0  0  0  0  0  0  0  0
   20.3509   -7.6003   -3.5454 C   0  0  0  0  0  3  0  0  0  0  0  0
   20.2927   -6.1475   -3.0717 C   0  0  0  0  0  0  0  0  0  0  0  0
   19.1543   -5.4969   -3.8176 C   0  0  0  0  0  0  0  0  0  0  0  0
   18.9900   -4.0417   -3.4764 C   0  0  2  0  0  0  0  0  0  0  0  0
   20.1749   -3.4508   -2.7829 C   0  0  2  0  0  0  0  0  0  0  0  0
   21.3825   -3.3280   -3.6551 C   0  0  0  0  0  0  0  0  0  0  0  0
   20.4514   -4.0172   -1.4330 C   0  0  0  0  0  2  0  0  0  0  0  0
   17.7684   -3.8413   -2.6072 C   0  0  0  0  0  0  0  0  0  0  0  0
   17.1051   -2.5543   -3.0650 C   0  0  2  0  0  0  0  0  0  0  0  0
   17.2918   -1.4885   -2.0264 C   0  0  0  0  0  0  0  0  0  0  0  0
   15.7946   -2.8005   -3.3904 O   0  0  0  0  0  0  0  0  0  0  0  0
   15.6955   -3.1489   -4.7517 C   0  0  0  0  0  0  0  0  0  0  0  0
   15.1550   -1.9790   -5.5072 C   0  0  1  0  0  0  0  0  0  0  0  0
   16.2638   -0.9577   -5.6785 C   0  0  0  0  0  0  0  0  0  0  0  0
   14.6121   -2.3268   -6.8615 C   0  0  0  0  0  0  0  0  0  0  0  0
   14.9041   -3.7208   -7.2719 C   0  0  0  0  0  0  0  0  0  0  0  0
   14.7657   -4.6339   -6.3592 N   0  0  0  0  0  4  0  0  0  0  0  0
   14.6506   -5.7554   -5.4347 C   0  0  0  0  0  0  0  0  0  0  0  0
   14.0212   -1.3716   -4.6998 C   0  0  0  0  0  0  0  0  0  0  0  0
   14.4074   -0.2499   -3.9981 O   0  0  0  0  0  1  0  0  0  0  0  0
  1  2  1  0
  2  3  1  6
  2  4  1  0
  4  5  1  0
  5  6  1  0
  6  7  1  0
  7  8  1  1
  7  9  1  0
  9 10  1  0
 10 11  1  0
 12 11  1  1
 12 13  1  0
 13 14  1  6
 13 15  1  0
 12 16  1  0
 16 17  1  0
 17 18  1  1
 17 19  1  0
 19 20  1  0
 20 21  1  0
 21 22  1  6
 21 23  1  0
 23 24  1  0
 24 25  2  3
 25 26  1  0
 21 27  1  0
 27 28  1  0
  1 26  1  1
 25  1  1  0
M  CHG  2  25   1  28  -1
M  RAD  2   9   2  15   3
M  END
>  <docking_score>  (2) 
-4.6829999999999998

$$$$

     RDKit          3D

 28 29  0  0  0  0  0  0  0  0999 V2000
    5.1663    7.9807    4.3745 C   0  0  2  0  0  0  0  0  0  0  0  0
    4.5003    8.8721    3.3553 C   0  0  2  0  0  0  0  0  0  0  0  0
    3.1877    8.2502    2.9118 C   0  0  0  0  0  0  0  0  0  0  0  0
    5.4283    9.0562    2.1657 C   0  0  0  0  0  0  0  0  0  0  0  0
    5.2364   10.4471    1.6387 C   0  0  0  0  0  0  0  0  0  0  0  0
    6.5581   11.2065    1.7070 C   0  0  0  0  0  0  0  0  0  0  0  0
    6.2560   12.6683    1.3822 C   0  0  1  0  0  0  0  0  0  0  0  0
    4.8543   13.0275    1.7990 C   0  0  0  0  0  0  0  0  0  0  0  0
    7.2770   13.5498    2.0618 C   0  0  0  0  0  3  0  0  0  0  0  0
    6.6532   14.1245    3.3342 C   0  0  0  0  0  0  0  0  0  0  0  0
    5.9505   12.9812    4.0233 C   0  0  0  0  0  0  0  0  0  0  0  0
    5.2556   13.4019    5.2886 C   0  0  2  0  0  0  0  0  0  0  0  0
    5.0799   14.8810    5.4132 C   0  0  2  0  0  0  0  0  0  0  0  0
    6.0811   15.5317    6.3123 C   0  0  0  0  0  0  0  0  0  0  0  0
    3.6756   15.3232    5.6412 C   0  0  0  0  0  2  0  0  0  0  0  0
    6.0153   12.8994    6.4962 C   0  0  0  0  0  0  0  0  0  0  0  0
    4.9819   12.4588    7.5180 C   0  0  2  0  0  0  0  0  0  0  0  0
    4.9606   13.4217    8.6677 C   0  0  0  0  0  0  0  0  0  0  0  0
    5.2158   11.1554    7.8791 O   0  0  0  0  0  0  0  0  0  0  0  0
    4.5090   10.2866    7.0248 C   0  0  0  0  0  0  0  0  0  0  0  0
    3.3154    9.7635    7.7551 C   0  0  1  0  0  0  0  0  0  0  0  0
    2.2575   10.8503    7.7973 C   0  0  0  0  0  0  0  0  0  0  0  0
    2.7144    8.5352    7.1387 C   0  0  0  0  0  0  0  0  0  0  0  0
    3.2902    8.1996    5.8148 C   0  0  0  0  0  0  0  0  0  0  0  0
    4.5782    8.3147    5.6979 N   0  0  0  0  0  4  0  0  0  0  0  0
    6.0087    8.4004    5.4294 C   0  0  0  0  0  0  0  0  0  0  0  0
    3.7389    9.4077    9.1695 C   0  0  0  0  0  0  0  0  0  0  0  0
    3.8639    8.0488    9.3628 O   0  0  0  0  0  1  0  0  0  0  0  0
  1  2  1  0
  2  3  1  6
  2  4  1  0
  4  5  1  0
  5  6  1  0
  6  7  1  0
  7  8  1  1
  7  9  1  0
  9 10  1  0
 10 11  1  0
 12 11  1  6
 12 13  1  0
 13 14  1  1
 13 15  1  0
 12 16  1  0
 16 17  1  0
 17 18  1  1
 17 19  1  0
 19 20  1  0
 20 21  1  0
 21 22  1  1
 21 23  1  0
 23 24  1  0
 24 25  2  3
 25 26  1  0
 21 27  1  0
 27 28  1  0
  1 26  1  1
 25  1  1  0
M  CHG  2  25   1  28  -1
M  RAD  2   9   2  15   3
M  END
>  <docking_score>  (3) 
-4.3259999999999996

$$$$
