
     RDKit          3D

 35 37  0  0  0  0  0  0  0  0999 V2000
   14.1197   -4.9458   -8.4765 O   0  0  0  0  0  0  0  0  0  0  0  0
   15.1961   -4.0967   -7.8677 C   0  0  0  0  0  0  0  0  0  0  0  0
   16.0287   -3.2030   -8.7383 C   0  0  0  0  0  0  0  0  0  0  0  0
   17.4777   -2.9832   -8.4191 C   0  0  0  0  0  0  0  0  0  0  0  0
   17.8696   -2.3109   -7.1366 C   0  0  0  0  0  0  0  0  0  0  0  0
   16.9224   -1.3581   -6.4695 C   0  0  0  0  0  0  0  0  0  0  0  0
   17.3142   -0.6858   -5.1871 C   0  0  0  0  0  0  0  0  0  0  0  0
   18.1475   -1.4206   -4.1793 C   0  0  0  0  0  0  0  0  0  0  0  0
   18.6141   -0.8813   -2.8596 N   0  0  0  0  0  0  0  0  0  0  0  0
   19.4155   -1.9510   -2.1789 C   0  0  0  0  0  0  0  0  0  0  0  0
   20.1065   -3.2510   -1.8919 C   0  0  0  0  0  0  0  0  0  0  0  0
   20.9156   -3.7201   -0.7192 C   0  0  0  0  0  0  0  0  0  0  0  0
   21.3571   -5.1271   -0.9937 C   0  0  0  0  0  0  0  0  0  0  0  0
   20.8209   -5.5276   -2.3361 C   0  0  0  0  0  0  0  0  0  0  0  0
   21.0223   -6.8546   -3.0058 Cl  0  0  0  0  0  0  0  0  0  0  0  0
   20.0480   -4.3682   -2.8912 S   0  0  0  0  0  0  0  0  0  0  0  0
   19.4442   -3.1515   -3.0778 N   0  0  0  0  0  0  0  0  0  0  0  0
   18.6606   -2.8236   -4.3141 C   0  0  0  0  0  0  0  0  0  0  0  0
   19.2984   -4.1852   -4.1776 C   0  0  0  0  0  0  0  0  0  0  0  0
   15.4399   -4.1415   -6.3884 N   0  0  0  0  0  0  0  0  0  0  0  0
   14.6072   -5.0353   -5.5177 C   0  0  0  0  0  0  0  0  0  0  0  0
   13.4556   -4.4665   -4.7430 C   0  0  0  0  0  0  0  0  0  0  0  0
   12.9304   -3.1010   -5.0740 C   0  0  0  0  0  0  0  0  0  0  0  0
   13.6926   -1.8809   -4.6490 C   0  0  0  0  0  0  0  0  0  0  0  0
   13.4518   -0.5693   -5.3356 N   0  0  0  0  0  0  0  0  0  0  0  0
   14.5967    0.1712   -5.9610 C   0  0  0  0  0  0  0  0  0  0  0  0
   15.1206    1.4220   -5.3198 C   0  0  0  0  0  0  0  0  0  0  0  0
   16.2655    2.1625   -5.9451 C   0  0  0  0  0  0  0  0  0  0  0  0
   16.2954    3.6618   -5.9140 C   0  0  0  0  0  0  0  0  0  0  0  0
   17.4402    4.4023   -6.5394 C   0  0  0  0  0  0  0  0  0  0  0  0
   18.3943    5.1747   -5.6772 C   0  0  0  0  0  0  0  0  0  0  0  0
   19.5391    5.9151   -6.3026 C   0  0  0  0  0  0  0  0  0  0  0  0
   19.3637    7.3408   -6.7344 C   0  0  0  0  0  0  0  0  0  0  0  0
   14.6955   -1.9726   -3.5374 C   0  0  0  0  0  0  0  0  0  0  0  0
   14.8075   -0.8625   -2.5348 N   0  0  0  0  0  0  0  0  0  0  0  0
  1  2  2  0
  2  3  1  0
  3  4  1  0
  4  5  1  0
  5  6  2  3
  6  7  1  0
  7  8  2  3
  8  9  1  0
  9 10  1  0
 10 11  1  0
 11 12  2  0
 12 13  1  0
 13 14  2  0
 14 15  1  0
 14 16  1  0
 10 17  2  0
 17 18  1  0
 18 19  2  0
  2 20  1  0
 20 21  1  0
 21 22  1  0
 22 23  1  0
 23 24  1  0
 24 25  1  0
 25 26  1  0
 26 27  2  3
 27 28  1  0
 28 29  2  3
 29 30  1  0
 30 31  2  3
 31 32  1  0
 32 33  2  0
 24 34  1  0
 34 35  1  0
 18  8  1  0
 16 11  1  0
 19 16  1  0
M  END
>  <docking_score>  (1) 
2.1960000000000002

$$$$
