
     RDKit          3D

 16 17  0  0  0  0  0  0  0  0999 V2000
   20.0280    1.0061   -5.1766 C   0  0  0  0  0  0  0  0  0  0  0  0
   19.2839   -0.1505   -4.8310 O   0  0  0  0  0  0  0  0  0  0  0  0
   18.9769   -1.0443   -5.8179 C   0  0  0  0  0  0  0  0  0  0  0  0
   17.7722   -1.3654   -6.2104 C   0  0  0  0  0  0  0  0  0  0  0  0
   16.4792   -0.8974   -5.7441 C   0  0  0  0  0  0  0  0  0  0  0  0
   15.5365   -1.5323   -6.4702 C   0  0  0  0  0  0  0  0  0  0  0  0
   16.1735   -2.4238   -7.4218 C   0  0  0  0  0  0  0  0  0  0  0  0
   17.4722   -2.3232   -7.2668 C   0  0  0  0  0  0  0  0  0  0  0  0
   15.4651   -3.2826   -8.3844 C   0  0  0  0  0  0  0  0  0  0  0  0
   14.6352   -4.3045   -7.6350 C   0  0  0  0  0  0  0  0  0  0  0  0
   15.4822   -5.3441   -6.9610 C   0  0  0  0  0  0  0  0  0  0  0  0
   15.0695   -5.4330   -5.5206 C   0  0  1  0  0  0  0  0  0  0  0  0
   14.9202   -6.7719   -4.8673 C   0  0  0  0  0  0  0  0  0  0  0  0
   16.1276   -5.9636   -4.5469 C   0  0  2  0  0  0  0  0  0  0  0  0
   16.1074   -5.2042   -3.2229 C   0  0  0  0  0  0  0  0  0  0  0  0
   16.2567   -3.4713   -3.4892 Cl  0  0  0  0  0  0  0  0  0  0  0  0
  1  2  1  0
  2  3  1  0
  3  4  2  3
  4  5  1  0
  5  6  2  0
  6  7  1  0
  7  8  2  0
  7  9  1  0
  9 10  1  0
 10 11  1  0
 12 11  1  6
 12 13  1  0
 13 14  1  0
 14 15  1  1
 15 16  1  0
  8  4  1  0
 14 12  1  0
M  END
>  <docking_score>  (1) 
-3.879

$$$$

     RDKit          3D

 16 17  0  0  0  0  0  0  0  0999 V2000
   13.4622   -0.1008   -4.2718 C   0  0  0  0  0  0  0  0  0  0  0  0
   13.9978   -0.4624   -5.5340 O   0  0  0  0  0  0  0  0  0  0  0  0
   15.3114   -0.8326   -5.6003 C   0  0  0  0  0  0  0  0  0  0  0  0
   15.8596   -1.5373   -6.5549 C   0  0  0  0  0  0  0  0  0  0  0  0
   15.2731   -2.1028   -7.7568 C   0  0  0  0  0  0  0  0  0  0  0  0
   16.2566   -2.7442   -8.4201 C   0  0  0  0  0  0  0  0  0  0  0  0
   17.5011   -2.6209   -7.6840 C   0  0  0  0  0  0  0  0  0  0  0  0
   17.2651   -1.9189   -6.6012 C   0  0  0  0  0  0  0  0  0  0  0  0
   18.7921   -3.1926   -8.0992 C   0  0  0  0  0  0  0  0  0  0  0  0
   18.7076   -4.7047   -8.0722 C   0  0  0  0  0  0  0  0  0  0  0  0
   18.8052   -5.2571   -6.6801 C   0  0  0  0  0  0  0  0  0  0  0  0
   17.4478   -5.7460   -6.2663 C   0  0  1  0  0  0  0  0  0  0  0  0
   17.2940   -7.1135   -5.6762 C   0  0  0  0  0  0  0  0  0  0  0  0
   17.2307   -5.9415   -4.7617 C   0  0  2  0  0  0  0  0  0  0  0  0
   15.8383   -5.4895   -4.3292 C   0  0  0  0  0  0  0  0  0  0  0  0
   15.8924   -3.8831   -3.6134 Cl  0  0  0  0  0  0  0  0  0  0  0  0
  1  2  1  0
  2  3  1  0
  3  4  2  3
  4  5  1  0
  5  6  2  0
  6  7  1  0
  7  8  2  0
  7  9  1  0
  9 10  1  0
 10 11  1  0
 12 11  1  1
 12 13  1  0
 13 14  1  0
 14 15  1  6
 15 16  1  0
  8  4  1  0
 14 12  1  0
M  END
>  <docking_score>  (2) 
-3.7690000000000001

$$$$

     RDKit          3D

 16 17  0  0  0  0  0  0  0  0999 V2000
    4.7518    7.3789    5.3103 C   0  0  0  0  0  0  0  0  0  0  0  0
    5.1551    8.6588    5.7688 O   0  0  0  0  0  0  0  0  0  0  0  0
    6.0854    9.3460    5.0414 C   0  0  0  0  0  0  0  0  0  0  0  0
    5.8471   10.0505    3.9665 C   0  0  0  0  0  0  0  0  0  0  0  0
    4.5991   10.2985    3.2668 C   0  0  0  0  0  0  0  0  0  0  0  0
    4.8808   11.0896    2.2115 C   0  0  0  0  0  0  0  0  0  0  0  0
    6.3023   11.3806    2.1870 C   0  0  0  0  0  0  0  0  0  0  0  0
    6.8591   10.7747    3.2086 C   0  0  0  0  0  0  0  0  0  0  0  0
    6.9800   12.2138    1.1807 C   0  0  0  0  0  0  0  0  0  0  0  0
    6.6831   13.6744    1.4505 C   0  0  0  0  0  0  0  0  0  0  0  0
    7.2560   14.1414    2.7568 C   0  0  0  0  0  0  0  0  0  0  0  0
    8.7519   14.1708    2.6366 C   0  0  1  0  0  0  0  0  0  0  0  0
    9.4087   15.1554    1.7196 C   0  0  0  0  0  0  0  0  0  0  0  0
    9.4484   15.4220    3.1829 C   0  0  2  0  0  0  0  0  0  0  0  0
   10.7485   15.0747    3.9035 C   0  0  0  0  0  0  0  0  0  0  0  0
   10.5092   15.0295    5.6461 Cl  0  0  0  0  0  0  0  0  0  0  0  0
  1  2  1  0
  2  3  1  0
  3  4  2  3
  4  5  1  0
  5  6  2  0
  6  7  1  0
  7  8  2  0
  7  9  1  0
  9 10  1  0
 10 11  1  0
 12 11  1  6
 12 13  1  0
 13 14  1  0
 14 15  1  1
 15 16  1  0
  8  4  1  0
 14 12  1  0
M  END
>  <docking_score>  (3) 
-3.7559999999999998

$$$$
