
     RDKit          3D

 14 13  0  0  0  0  0  0  0  0999 V2000
    7.9606   -0.7384   19.0638 C   0  0  0  0  0  0  0  0  0  0  0  0
    8.2246   -1.2645   20.2241 C   0  0  0  0  0  0  0  0  0  0  0  0
    7.9401   -0.6010   21.4795 C   0  0  0  0  0  0  0  0  0  0  0  0
    8.6293    0.4503   21.9018 C   0  0  0  0  0  0  0  0  0  0  0  0
    8.3635    1.1408   23.1668 C   0  0  0  0  0  0  0  0  0  0  0  0
    6.9688    0.9674   23.6685 C   0  0  0  0  0  0  0  0  0  0  0  0
    6.9497    0.2127   24.9429 C   0  0  1  0  0  0  0  0  0  0  0  0
    5.9295    0.6403   25.9319 C   0  0  0  0  0  0  0  0  0  0  0  0
    6.4920    1.5108   27.0012 C   0  0  0  0  0  0  0  0  0  0  0  0
    7.5095    2.1255   26.8358 O   0  0  0  0  0  0  0  0  0  0  0  0
    7.1577   -1.1327   24.8480 O   0  0  0  0  0  0  0  0  0  0  0  0
    6.2122   -1.8273   25.5556 C   0  0  0  0  0  0  0  0  0  0  0  0
    6.2612   -3.3085   25.4499 C   0  0  0  0  0  0  0  0  0  0  0  0
    7.1528   -3.8690   24.4002 C   0  0  0  0  0  0  0  0  0  0  0  0
  1  2  2  0
  2  3  1  0
  3  4  2  3
  4  5  1  0
  5  6  1  0
  7  6  1  6
  7  8  1  0
  8  9  1  0
  9 10  2  0
  7 11  1  0
 11 12  1  0
 12 13  1  0
 13 14  1  0
M  END
>  <docking_score>  (1) 
-4.141

$$$$

     RDKit          3D

 14 13  0  0  0  0  0  0  0  0999 V2000
    4.9280   -5.1575   25.3629 C   0  0  0  0  0  0  0  0  0  0  0  0
    5.8188   -4.4893   26.0358 C   0  0  0  0  0  0  0  0  0  0  0  0
    6.5681   -3.3823   25.4789 C   0  0  0  0  0  0  0  0  0  0  0  0
    6.9667   -3.3564   24.2144 C   0  0  0  0  0  0  0  0  0  0  0  0
    7.7257   -2.2501   23.6247 C   0  0  0  0  0  0  0  0  0  0  0  0
    7.8384   -2.3192   22.1382 C   0  0  0  0  0  0  0  0  0  0  0  0
    8.1841   -0.9970   21.5670 C   0  0  1  0  0  0  0  0  0  0  0  0
    8.8178   -0.0348   22.5021 C   0  0  0  0  0  0  0  0  0  0  0  0
    8.0673    1.2471   22.6069 C   0  0  0  0  0  0  0  0  0  0  0  0
    8.5703    2.2925   22.2992 O   0  0  0  0  0  0  0  0  0  0  0  0
    8.6784   -1.0023   20.2950 O   0  0  0  0  0  0  0  0  0  0  0  0
    7.7405   -0.5566   19.4014 C   0  0  0  0  0  0  0  0  0  0  0  0
    7.6389   -1.3023   18.1202 C   0  0  0  0  0  0  0  0  0  0  0  0
    8.9207   -1.7227   17.4946 C   0  0  0  0  0  0  0  0  0  0  0  0
  1  2  2  0
  2  3  1  0
  3  4  2  3
  4  5  1  0
  5  6  1  0
  7  6  1  1
  7  8  1  0
  8  9  1  0
  9 10  2  0
  7 11  1  0
 11 12  1  0
 12 13  1  0
 13 14  1  0
M  END
>  <docking_score>  (2) 
-4.141

$$$$

     RDKit          3D

 14 13  0  0  0  0  0  0  0  0999 V2000
    6.9628    2.3759   28.6276 C   0  0  0  0  0  0  0  0  0  0  0  0
    7.2707    2.4208   27.3643 C   0  0  0  0  0  0  0  0  0  0  0  0
    7.1250    1.2901   26.4713 C   0  0  0  0  0  0  0  0  0  0  0  0
    6.0209    0.5570   26.4246 C   0  0  0  0  0  0  0  0  0  0  0  0
    5.8461   -0.5918   25.5315 C   0  0  0  0  0  0  0  0  0  0  0  0
    6.9747   -0.7915   24.5758 C   0  0  0  0  0  0  0  0  0  0  0  0
    7.3315   -2.2246   24.4629 C   0  0  1  0  0  0  0  0  0  0  0  0
    6.2267   -3.1862   24.7009 C   0  0  0  0  0  0  0  0  0  0  0  0
    6.4965   -4.1035   25.8426 C   0  0  0  0  0  0  0  0  0  0  0  0
    5.8282   -5.0830   26.0286 O   0  0  0  0  0  0  0  0  0  0  0  0
    8.1976   -2.5514   23.4601 O   0  0  0  0  0  0  0  0  0  0  0  0
    7.8345   -1.9526   22.2825 C   0  0  0  0  0  0  0  0  0  0  0  0
    8.7129   -2.2070   21.1115 C   0  0  0  0  0  0  0  0  0  0  0  0
    9.8783   -3.1021   21.3391 C   0  0  0  0  0  0  0  0  0  0  0  0
  1  2  2  0
  2  3  1  0
  3  4  2  3
  4  5  1  0
  5  6  1  0
  7  6  1  6
  7  8  1  0
  8  9  1  0
  9 10  2  0
  7 11  1  0
 11 12  1  0
 12 13  1  0
 13 14  1  0
M  END
>  <docking_score>  (3) 
-4.1280000000000001

$$$$
