
     RDKit          3D

 25 25  0  0  0  0  0  0  0  0999 V2000
   14.6809   -1.1414   -4.0015 C   0  0  0  0  0  0  0  0  0  0  0  0
   14.5730   -2.1628   -5.0119 N   0  0  0  0  0  3  0  0  0  0  0  0
   15.2906   -1.7104   -6.2027 C   0  0  0  0  0  0  0  0  0  0  0  0
   15.2477   -3.3894   -4.5909 C   0  0  0  0  0  0  0  0  0  0  0  0
   16.1587   -3.0013   -3.4567 C   0  0  0  0  0  3  0  0  0  0  0  0
   17.5637   -3.5016   -3.6224 C   0  0  0  0  0  3  0  0  0  0  0  0
   18.1235   -4.1405   -2.3825 C   0  0  0  0  0  0  0  0  0  0  0  0
   18.6008   -3.0966   -1.4014 C   0  0  0  0  0  3  0  0  0  0  0  0
   18.7355   -1.7637   -2.0817 C   0  0  0  0  0  0  0  0  0  0  0  0
   17.7660   -4.3259   -4.8684 C   0  0  0  0  0  3  0  0  0  0  0  0
   19.1254   -4.9818   -4.7261 C   0  0  2  0  0  0  0  0  0  0  0  0
   18.9324   -6.2096   -3.8462 C   0  0  0  0  0  0  0  0  0  0  0  0
   17.9862   -7.1474   -4.5447 C   0  0  0  0  0  0  0  0  0  0  0  0
   18.8261   -8.1889   -5.2600 C   0  0  0  0  0  0  0  0  0  0  0  0
   17.8783   -8.7404   -6.4758 C   0  0  0  0  0  3  0  0  0  0  0  0
   17.3111   -7.3971   -6.8866 N   0  0  0  0  0  0  0  0  0  0  0  0
   17.4372   -7.1744   -8.1595 C   0  0  0  0  0  0  0  0  0  0  0  0
   16.9083   -5.8104   -8.4683 N   0  0  0  0  0  2  0  0  0  0  0  0
   17.6686   -4.7566   -8.5667 C   0  0  0  0  0  2  0  0  0  0  0  0
   20.0456   -4.0476   -3.9636 C   0  0  0  0  0  3  0  0  0  0  0  0
   19.6803   -2.6114   -4.2445 C   0  0  0  0  0  3  0  0  0  0  0  0
   19.9348   -1.7145   -3.0296 C   0  0  1  0  0  0  0  0  0  0  0  0
   19.9361   -0.3780   -3.5285 O   0  0  0  0  0  0  0  0  0  0  0  0
   19.5131   -0.0741   -4.7937 N   0  0  0  0  0  3  0  0  0  0  0  0
   19.9956    0.8424   -5.5209 N   0  0  0  0  0  2  0  0  0  0  0  0
  1  2  1  0
  2  3  1  0
  2  4  1  0
  4  5  1  0
  5  6  1  0
  6  7  1  0
  7  8  1  0
  8  9  1  0
  6 10  1  0
 10 11  1  0
 11 12  1  1
 12 13  1  0
 13 14  1  0
 14 15  1  0
 15 16  1  0
 16 17  2  3
 17 18  1  0
 18 19  1  0
 11 20  1  0
 20 21  1  0
 21 22  1  0
 22 23  1  6
 23 24  1  0
 24 25  2  0
 22  9  1  0
M  RAD  8   2   2   5   2   6   2   8   2  10   2  15   2  18   3  19   3
M  CHG  4   2   1  18   1  24   1  25  -1
M  RAD  3  20   2  21   2  24   2
M  END
>  <docking_score>  (1) 
-3.7919999999999998

$$$$

     RDKit          3D

 25 25  0  0  0  0  0  0  0  0999 V2000
   19.8462   -0.9678   -1.5831 C   0  0  0  0  0  0  0  0  0  0  0  0
   19.9659   -2.0581   -2.5171 N   0  0  0  0  0  3  0  0  0  0  0  0
   21.1713   -2.8171   -2.1873 C   0  0  0  0  0  0  0  0  0  0  0  0
   18.8576   -2.9998   -2.3680 C   0  0  0  0  0  0  0  0  0  0  0  0
   17.6497   -2.3266   -2.9636 C   0  0  0  0  0  3  0  0  0  0  0  0
   16.8964   -3.1968   -3.9265 C   0  0  0  0  0  3  0  0  0  0  0  0
   17.7136   -3.6275   -5.1120 C   0  0  0  0  0  0  0  0  0  0  0  0
   17.7891   -2.5309   -6.1473 C   0  0  0  0  0  3  0  0  0  0  0  0
   16.7366   -1.4913   -5.8844 C   0  0  0  0  0  0  0  0  0  0  0  0
   16.1563   -4.3295   -3.2617 C   0  0  0  0  0  3  0  0  0  0  0  0
   15.7112   -5.2562   -4.3760 C   0  0  2  0  0  0  0  0  0  0  0  0
   16.9066   -6.1328   -4.7242 C   0  0  0  0  0  0  0  0  0  0  0  0
   16.4143   -7.3063   -5.5261 C   0  0  0  0  0  0  0  0  0  0  0  0
   17.5796   -8.2640   -5.6899 C   0  0  0  0  0  0  0  0  0  0  0  0
   16.9596   -9.7477   -5.3818 C   0  0  0  0  0  3  0  0  0  0  0  0
   17.2536  -10.3521   -6.7395 N   0  0  0  0  0  0  0  0  0  0  0  0
   16.8767  -11.5917   -6.8221 C   0  0  0  0  0  0  0  0  0  0  0  0
   17.2553  -12.1256   -8.1665 N   0  0  0  0  0  2  0  0  0  0  0  0
   18.4422  -11.9772   -8.6839 C   0  0  0  0  0  2  0  0  0  0  0  0
   15.4097   -4.4305   -5.6122 C   0  0  0  0  0  3  0  0  0  0  0  0
   14.9023   -3.0661   -5.2174 C   0  0  0  0  0  3  0  0  0  0  0  0
   15.3306   -1.9909   -6.2203 C   0  0  1  0  0  0  0  0  0  0  0  0
   14.4872   -0.8683   -5.9682 O   0  0  0  0  0  0  0  0  0  0  0  0
   13.6908   -0.7924   -4.8582 N   0  0  0  0  0  3  0  0  0  0  0  0
   13.7576    0.1128   -3.9763 N   0  0  0  0  0  2  0  0  0  0  0  0
  1  2  1  0
  2  3  1  0
  2  4  1  0
  4  5  1  0
  5  6  1  0
  6  7  1  0
  7  8  1  0
  8  9  1  0
  6 10  1  0
 10 11  1  0
 11 12  1  6
 12 13  1  0
 13 14  1  0
 14 15  1  0
 15 16  1  0
 16 17  2  3
 17 18  1  0
 18 19  1  0
 11 20  1  0
 20 21  1  0
 21 22  1  0
 22 23  1  1
 23 24  1  0
 24 25  2  0
 22  9  1  0
M  RAD  8   2   2   5   2   6   2   8   2  10   2  15   2  18   3  19   3
M  CHG  4   2   1  18   1  24   1  25  -1
M  RAD  3  20   2  21   2  24   2
M  END
>  <docking_score>  (2) 
-3.7839999999999998

$$$$

     RDKit          3D

 25 25  0  0  0  0  0  0  0  0999 V2000
    4.0237    6.7202    3.2613 C   0  0  0  0  0  0  0  0  0  0  0  0
    3.9414    7.9155    4.0614 N   0  0  0  0  0  3  0  0  0  0  0  0
    3.7072    7.5247    5.4507 C   0  0  0  0  0  0  0  0  0  0  0  0
    5.2158    8.6316    4.0659 C   0  0  0  0  0  0  0  0  0  0  0  0
    4.9572    9.9561    3.3983 C   0  0  0  0  0  3  0  0  0  0  0  0
    5.2060   11.1340    4.2941 C   0  0  0  0  0  3  0  0  0  0  0  0
    4.0698   12.1175    4.3220 C   0  0  0  0  0  0  0  0  0  0  0  0
    4.1021   13.0194    3.1113 C   0  0  0  0  0  3  0  0  0  0  0  0
    5.4422   12.9398    2.4364 C   0  0  0  0  0  0  0  0  0  0  0  0
    5.7063   10.7530    5.6643 C   0  0  0  0  0  3  0  0  0  0  0  0
    5.6192   12.0077    6.5109 C   0  0  2  0  0  0  0  0  0  0  0  0
    4.1752   12.1233    6.9803 C   0  0  0  0  0  0  0  0  0  0  0  0
    4.0953   11.6124    8.3928 C   0  0  0  0  0  0  0  0  0  0  0  0
    3.1672   10.4123    8.3888 C   0  0  0  0  0  0  0  0  0  0  0  0
    4.0305    9.2023    9.0753 C   0  0  0  0  0  3  0  0  0  0  0  0
    4.6759   10.0355   10.1635 N   0  0  0  0  0  0  0  0  0  0  0  0
    5.1478    9.3084   11.1301 C   0  0  0  0  0  0  0  0  0  0  0  0
    5.7111   10.2076   12.1835 N   0  0  0  0  0  2  0  0  0  0  0  0
    5.4106   11.4722   12.2764 C   0  0  0  0  0  2  0  0  0  0  0  0
    5.8825   13.2148    5.6309 C   0  0  0  0  0  3  0  0  0  0  0  0
    6.8358   12.8524    4.5196 C   0  0  0  0  0  3  0  0  0  0  0  0
    6.5392   13.6399    3.2401 C   0  0  1  0  0  0  0  0  0  0  0  0
    7.7060   13.5143    2.4289 O   0  0  0  0  0  0  0  0  0  0  0  0
    8.8450   14.2300    2.6785 N   0  0  0  0  0  3  0  0  0  0  0  0
    8.8919   15.4817    2.8598 N   0  0  0  0  0  2  0  0  0  0  0  0
  1  2  1  0
  2  3  1  0
  2  4  1  0
  4  5  1  0
  5  6  1  0
  6  7  1  0
  7  8  1  0
  8  9  1  0
  6 10  1  0
 10 11  1  0
 11 12  1  6
 12 13  1  0
 13 14  1  0
 14 15  1  0
 15 16  1  0
 16 17  2  3
 17 18  1  0
 18 19  1  0
 11 20  1  0
 20 21  1  0
 21 22  1  0
 22 23  1  6
 23 24  1  0
 24 25  2  0
 22  9  1  0
M  RAD  8   2   2   5   2   6   2   8   2  10   2  15   2  18   3  19   3
M  CHG  4   2   1  18   1  24   1  25  -1
M  RAD  3  20   2  21   2  24   2
M  END
>  <docking_score>  (3) 
-3.3610000000000002

$$$$
