
     RDKit          3D

 18 18  0  0  0  0  0  0  0  0999 V2000
   17.1860   -1.2910   -6.0868 C   0  0  0  0  0  0  0  0  0  0  0  0
   16.2536   -1.9243   -7.0447 C   0  0  1  0  0  0  0  0  0  0  0  0
   16.9791   -2.3248   -8.3034 C   0  0  0  0  0  0  0  0  0  0  0  0
   15.4559   -3.0424   -6.5577 C   0  0  0  0  0  0  0  0  0  0  0  0
   14.5406   -2.8909   -5.6112 C   0  0  0  0  0  0  0  0  0  0  0  0
   14.3520   -1.5230   -5.0546 C   0  0  0  0  0  0  0  0  0  0  0  0
   15.3748   -1.3487   -4.0567 O   0  0  0  0  0  0  0  0  0  0  0  0
   15.6901   -2.4234   -3.3007 C   0  0  0  0  0  0  0  0  0  0  0  0
   16.7872   -2.7147   -2.6469 C   0  0  0  0  0  0  0  0  0  0  0  0
   16.6684   -4.4162   -1.7223 Br  0  0  0  0  0  0  0  0  0  0  0  0
   17.8947   -1.8837   -2.6045 C   0  0  0  0  0  0  0  0  0  0  0  0
   18.8985   -1.5409   -3.4036 C   0  0  0  0  0  0  0  0  0  0  0  0
   19.8327   -0.5751   -2.8286 C   0  0  0  0  0  0  0  0  0  0  0  0
   20.3983    0.3040   -3.5209 O   0  0  0  0  0  0  0  0  0  0  0  0
   20.1317   -0.5887   -1.4913 O   0  0  0  0  0  0  0  0  0  0  0  0
   19.0953   -2.0638   -4.7151 C   0  0  0  0  0  0  0  0  0  0  0  0
   18.4480   -2.0023   -5.8316 C   0  0  0  0  0  0  0  0  0  0  0  0
   19.1950   -2.9520   -7.3405 Br  0  0  0  0  0  0  0  0  0  0  0  0
  1  2  1  0
  2  3  1  6
  2  4  1  0
  4  5  2  3
  5  6  1  0
  6  7  1  0
  7  8  1  0
  8  9  2  3
  9 10  1  0
  9 11  1  0
 11 12  2  3
 12 13  1  0
 13 14  2  0
 13 15  1  0
 12 16  1  0
 16 17  2  3
 17 18  1  0
 17  1  1  0
M  END
>  <docking_score>  (1) 
-5.4109999999999996

$$$$

     RDKit          3D

 18 18  0  0  0  0  0  0  0  0999 V2000
   17.7495   -4.6786   -2.6775 C   0  0  0  0  0  0  0  0  0  0  0  0
   18.8971   -3.9225   -2.1303 C   0  0  1  0  0  0  0  0  0  0  0  0
   20.1731   -4.7081   -2.2900 C   0  0  0  0  0  0  0  0  0  0  0  0
   19.0908   -2.5621   -2.6156 C   0  0  0  0  0  0  0  0  0  0  0  0
   18.2119   -1.5999   -2.3745 C   0  0  0  0  0  0  0  0  0  0  0  0
   17.0042   -1.9594   -1.5816 C   0  0  0  0  0  0  0  0  0  0  0  0
   16.0712   -2.5433   -2.5093 O   0  0  0  0  0  0  0  0  0  0  0  0
   16.0160   -2.0086   -3.7491 C   0  0  0  0  0  0  0  0  0  0  0  0
   15.6241   -2.5282   -4.8859 C   0  0  0  0  0  0  0  0  0  0  0  0
   15.7654   -1.2752   -6.3605 Br  0  0  0  0  0  0  0  0  0  0  0  0
   15.1402   -3.8203   -5.0088 C   0  0  0  0  0  0  0  0  0  0  0  0
   15.6281   -5.0553   -5.0338 C   0  0  0  0  0  0  0  0  0  0  0  0
   14.6232   -6.1045   -5.1926 C   0  0  0  0  0  0  0  0  0  0  0  0
   13.7724   -6.0837   -6.1134 O   0  0  0  0  0  0  0  0  0  0  0  0
   14.5692   -7.1697   -4.3321 O   0  0  0  0  0  0  0  0  0  0  0  0
   17.0144   -5.3730   -4.9362 C   0  0  0  0  0  0  0  0  0  0  0  0
   17.9201   -5.2471   -4.0234 C   0  0  0  0  0  0  0  0  0  0  0  0
   19.7035   -5.8536   -4.4575 Br  0  0  0  0  0  0  0  0  0  0  0  0
  1  2  1  0
  2  3  1  6
  2  4  1  0
  4  5  2  3
  5  6  1  0
  6  7  1  0
  7  8  1  0
  8  9  2  3
  9 10  1  0
  9 11  1  0
 11 12  2  3
 12 13  1  0
 13 14  2  0
 13 15  1  0
 12 16  1  0
 16 17  2  3
 17 18  1  0
 17  1  1  0
M  END
>  <docking_score>  (2) 
-5.242

$$$$

     RDKit          3D

 18 18  0  0  0  0  0  0  0  0999 V2000
   15.4598   -4.4616   -4.2329 C   0  0  0  0  0  0  0  0  0  0  0  0
   16.0032   -5.8361   -4.1745 C   0  0  1  0  0  0  0  0  0  0  0  0
   14.9798   -6.8309   -4.6582 C   0  0  0  0  0  0  0  0  0  0  0  0
   17.2781   -6.0771   -4.8380 C   0  0  0  0  0  0  0  0  0  0  0  0
   18.4015   -5.5070   -4.4264 C   0  0  0  0  0  0  0  0  0  0  0  0
   18.3169   -4.6001   -3.2488 C   0  0  0  0  0  0  0  0  0  0  0  0
   17.8843   -3.3230   -3.7529 O   0  0  0  0  0  0  0  0  0  0  0  0
   18.3650   -2.9385   -4.9559 C   0  0  0  0  0  0  0  0  0  0  0  0
   17.8817   -2.1016   -5.8402 C   0  0  0  0  0  0  0  0  0  0  0  0
   19.0183   -1.9388   -7.4041 Br  0  0  0  0  0  0  0  0  0  0  0  0
   16.7032   -1.3961   -5.6601 C   0  0  0  0  0  0  0  0  0  0  0  0
   15.3974   -1.6327   -5.7120 C   0  0  0  0  0  0  0  0  0  0  0  0
   14.5561   -0.4736   -5.4211 C   0  0  0  0  0  0  0  0  0  0  0  0
   14.9097    0.6973   -5.6969 O   0  0  0  0  0  0  0  0  0  0  0  0
   13.3288   -0.6198   -4.8291 O   0  0  0  0  0  0  0  0  0  0  0  0
   14.8225   -2.8953   -6.0398 C   0  0  0  0  0  0  0  0  0  0  0  0
   14.8109   -4.0655   -5.4921 C   0  0  0  0  0  0  0  0  0  0  0  0
   13.8531   -5.4660   -6.4185 Br  0  0  0  0  0  0  0  0  0  0  0  0
  1  2  1  0
  2  3  1  6
  2  4  1  0
  4  5  2  3
  5  6  1  0
  6  7  1  0
  7  8  1  0
  8  9  2  3
  9 10  1  0
  9 11  1  0
 11 12  2  3
 12 13  1  0
 13 14  2  0
 13 15  1  0
 12 16  1  0
 16 17  2  3
 17 18  1  0
 17  1  1  0
M  END
>  <docking_score>  (3) 
-5.1120000000000001

$$$$
