
     RDKit          3D

 34 33  0  0  0  0  0  0  0  0999 V2000
   16.6920   -5.3529   -2.6682 C   0  0  0  0  0  0  0  0  0  0  0  0
   17.6292   -4.5342   -2.0170 O   0  0  0  0  0  0  0  0  0  0  0  0
   18.1332   -3.6365   -2.9590 C   0  0  0  0  0  3  0  0  0  0  0  0
   19.1953   -2.9232   -2.3677 O   0  0  0  0  0  0  0  0  0  0  0  0
   20.3993   -3.2256   -3.0334 C   0  0  2  0  0  0  0  0  0  0  0  0
   21.0343   -4.3611   -2.2070 C   0  0  0  0  0  0  0  0  0  0  0  0
   21.3810   -2.0704   -2.9300 C   0  0  0  0  0  3  0  0  0  0  0  0
   20.8914   -0.8546   -3.6436 C   0  0  1  0  0  0  0  0  0  0  0  0
   20.3956   -1.1782   -4.9978 C   0  0  0  0  0  3  0  0  0  0  0  0
   19.4143   -2.1986   -5.2324 C   0  0  0  0  0  0  0  0  0  0  0  0
   19.2511   -2.9877   -6.4021 C   0  0  2  0  0  0  0  0  0  0  0  0
   20.3653   -2.9370   -7.3708 C   0  0  0  0  0  2  0  0  0  0  0  0
   18.1111   -3.6081   -6.7597 O   0  0  0  0  0  0  0  0  0  0  0  0
   18.3746   -5.0005   -6.7827 C   0  0  0  0  0  0  0  0  0  0  0  0
   17.0420   -5.7296   -6.7319 C   0  0  0  0  0  0  0  0  0  0  0  0
   17.0212   -6.9166   -7.6539 C   0  0  0  0  0  3  0  0  0  0  0  0
   16.9021   -8.0817   -6.9137 O   0  0  0  0  0  0  0  0  0  0  0  0
   16.4601   -7.6761   -5.6384 C   0  0  0  0  0  3  0  0  0  0  0  0
   15.8515   -8.8093   -5.0795 O   0  0  0  0  0  0  0  0  0  0  0  0
   16.7796   -9.8497   -5.0895 C   0  0  2  0  0  0  0  0  0  0  0  0
   18.0620   -9.3670   -5.3138 O   0  0  0  0  0  1  0  0  0  0  0  0
   16.4662  -10.7387   -6.1134 O   0  0  0  0  0  0  0  0  0  0  0  0
   17.4596  -10.9060   -6.9468 O   0  0  0  0  0  0  0  0  0  0  0  0
   17.2318  -11.9924   -7.7874 C   0  0  0  0  0  3  0  0  0  0  0  0
   17.7859  -13.2707   -7.1953 C   0  0  0  0  0  3  0  0  0  0  0  0
   17.5708  -14.3142   -8.1214 O   0  0  0  0  0  0  0  0  0  0  0  0
   16.8360  -15.2774   -7.4627 C   0  0  0  0  0  3  0  0  0  0  0  0
   17.6690  -16.1733   -6.6761 N   0  0  0  0  0  0  0  0  0  0  0  0
   19.8994   -0.1668   -2.8234 N   0  0  0  0  0  0  0  0  0  0  0  0
   19.3747   -0.9690   -1.7613 C   0  0  0  0  0  3  0  0  0  0  0  0
   18.0373   -0.4743   -1.2551 C   0  0  0  0  0  3  0  0  0  0  0  0
   17.0320   -1.4186   -1.4560 O   0  0  0  0  0  0  0  0  0  0  0  0
   16.0355   -0.9121   -2.3061 C   0  0  0  0  0  3  0  0  0  0  0  0
   15.4342   -1.9566   -2.9692 F   0  0  0  0  0  0  0  0  0  0  0  0
  1  2  1  0
  2  3  1  0
  3  4  1  0
  4  5  1  0
  5  6  1  1
  5  7  1  0
  8  7  1  1
  8  9  1  0
  9 10  1  0
 10 11  1  0
 11 12  1  6
 11 13  1  0
 13 14  1  0
 14 15  1  0
 15 16  1  0
 16 17  1  0
 17 18  1  0
 18 19  1  0
 19 20  1  0
 20 21  1  6
 20 22  1  0
 22 23  1  0
 23 24  1  0
 24 25  1  0
 25 26  1  0
 26 27  1  0
 27 28  1  0
  8 29  1  0
 29 30  1  0
 30 31  1  0
 31 32  1  0
 32 33  1  0
 33 34  1  0
M  RAD  8   3   2   7   2   9   2  12   3  16   2  18   2  24   2  25   2
M  CHG  1  21  -1
M  RAD  4  27   2  30   2  31   2  33   2
M  END
>  <docking_score>  (1) 
0.64800000000000002

$$$$
