
     RDKit          3D

 19 20  0  0  0  0  0  0  0  0999 V2000
   16.3580   -3.4987   -3.7291 C   0  0  1  0  0  0  0  0  0  0  0  0
   16.1827   -2.1212   -3.6980 O   0  0  0  0  0  0  0  0  0  0  0  0
   14.9980   -1.5905   -4.1777 C   0  0  0  0  0  0  0  0  0  0  0  0
   14.2425   -2.3932   -4.9264 C   0  0  0  0  0  0  0  0  0  0  0  0
   14.4959   -3.6851   -5.2807 C   0  0  0  0  0  0  0  0  0  0  0  0
   14.4155   -4.7942   -5.8004 C   0  0  0  0  0  0  0  0  0  0  0  0
   15.4571   -5.8313   -5.4781 C   0  0  0  0  0  0  0  0  0  0  0  0
   16.6629   -5.4670   -5.0923 C   0  0  0  0  0  0  0  0  0  0  0  0
   17.7636   -6.4027   -4.7498 C   0  0  0  0  0  0  0  0  0  0  0  0
   16.9582   -4.0175   -4.9954 C   0  0  2  0  0  0  0  0  0  0  0  0
   18.3554   -3.6864   -5.2332 C   0  0  0  0  0  0  0  0  0  0  0  0
   19.3241   -3.1034   -4.5604 C   0  0  0  0  0  0  0  0  0  0  0  0
   19.3956   -2.5104   -3.2077 C   0  0  0  0  0  0  0  0  0  0  0  0
   19.4339   -3.6331   -2.1952 C   0  0  1  0  0  0  0  0  0  0  0  0
   20.1058   -3.1484   -0.9299 C   0  0  0  0  0  0  0  0  0  0  0  0
   18.0573   -4.1481   -1.9171 C   0  0  0  0  0  0  0  0  0  0  0  0
   16.8703   -4.0948   -2.5112 C   0  0  0  0  0  0  0  0  0  0  0  0
   15.9381   -4.7554   -1.7996 F   0  0  0  0  0  0  0  0  0  0  0  0
   13.4645   -5.3279   -6.7106 O   0  0  0  0  0  0  0  0  0  0  0  0
  1  2  1  1
  2  3  1  0
  3  4  2  3
  4  5  1  0
  5  6  2  3
  6  7  1  0
  7  8  2  3
  8  9  1  0
  8 10  1  0
 10 11  1  1
 11 12  2  3
 12 13  1  0
 13 14  1  0
 14 15  1  1
 14 16  1  0
 16 17  2  3
 17 18  1  0
  6 19  1  0
 10  1  1  0
 17  1  1  0
M  END
>  <docking_score>  (1) 
-6.0869999999999997

$$$$

     RDKit          3D

 19 20  0  0  0  0  0  0  0  0999 V2000
   17.3105   -2.5329   -4.5579 C   0  0  1  0  0  0  0  0  0  0  0  0
   17.6421   -3.4586   -5.5390 O   0  0  0  0  0  0  0  0  0  0  0  0
   17.1117   -3.3021   -6.8076 C   0  0  0  0  0  0  0  0  0  0  0  0
   16.0757   -2.4723   -6.9249 C   0  0  0  0  0  0  0  0  0  0  0  0
   15.4689   -1.7519   -5.9392 C   0  0  0  0  0  0  0  0  0  0  0  0
   14.6918   -1.0213   -5.3318 C   0  0  0  0  0  0  0  0  0  0  0  0
   14.9258   -0.7582   -3.8688 C   0  0  0  0  0  0  0  0  0  0  0  0
   15.5852   -1.6291   -3.1325 C   0  0  0  0  0  0  0  0  0  0  0  0
   15.8729   -1.4712   -1.6845 C   0  0  0  0  0  0  0  0  0  0  0  0
   16.0763   -2.8666   -3.7844 C   0  0  2  0  0  0  0  0  0  0  0  0
   16.1640   -4.0079   -2.8856 C   0  0  0  0  0  0  0  0  0  0  0  0
   17.1105   -4.8199   -2.4663 C   0  0  0  0  0  0  0  0  0  0  0  0
   18.5583   -4.9120   -2.7528 C   0  0  0  0  0  0  0  0  0  0  0  0
   19.2624   -3.7917   -2.0207 C   0  0  1  0  0  0  0  0  0  0  0  0
   20.7017   -4.1811   -1.7673 C   0  0  0  0  0  0  0  0  0  0  0  0
   19.1726   -2.5121   -2.7902 C   0  0  0  0  0  0  0  0  0  0  0  0
   18.4176   -2.0280   -3.7702 C   0  0  0  0  0  0  0  0  0  0  0  0
   18.7819   -0.7730   -4.0928 F   0  0  0  0  0  0  0  0  0  0  0  0
   13.5331   -0.3265   -5.7706 O   0  0  0  0  0  0  0  0  0  0  0  0
  1  2  1  1
  2  3  1  0
  3  4  2  3
  4  5  1  0
  5  6  2  3
  6  7  1  0
  7  8  2  3
  8  9  1  0
  8 10  1  0
 10 11  1  1
 11 12  2  3
 12 13  1  0
 13 14  1  0
 14 15  1  6
 14 16  1  0
 16 17  2  3
 17 18  1  0
  6 19  1  0
 10  1  1  0
 17  1  1  0
M  END
>  <docking_score>  (2) 
-6.0019999999999998

$$$$

     RDKit          3D

 19 20  0  0  0  0  0  0  0  0999 V2000
   15.8484   -4.1789   -4.8654 C   0  0  1  0  0  0  0  0  0  0  0  0
   14.6832   -4.6679   -5.4421 O   0  0  0  0  0  0  0  0  0  0  0  0
   14.4091   -6.0208   -5.3429 C   0  0  0  0  0  0  0  0  0  0  0  0
   15.4208   -6.8120   -4.9881 C   0  0  0  0  0  0  0  0  0  0  0  0
   16.7047   -6.4486   -4.7080 C   0  0  0  0  0  0  0  0  0  0  0  0
   17.9009   -6.4908   -4.4364 C   0  0  0  0  0  0  0  0  0  0  0  0
   18.6667   -5.2027   -4.2991 C   0  0  0  0  0  0  0  0  0  0  0  0
   18.2604   -4.1164   -4.9239 C   0  0  0  0  0  0  0  0  0  0  0  0
   18.9369   -2.7963   -4.8586 C   0  0  0  0  0  0  0  0  0  0  0  0
   17.0422   -4.2066   -5.7637 C   0  0  2  0  0  0  0  0  0  0  0  0
   17.0316   -3.2773   -6.8837 C   0  0  0  0  0  0  0  0  0  0  0  0
   16.2626   -2.2937   -7.2983 C   0  0  0  0  0  0  0  0  0  0  0  0
   15.0206   -1.6932   -6.7658 C   0  0  0  0  0  0  0  0  0  0  0  0
   15.3765   -0.8445   -5.5658 C   0  0  1  0  0  0  0  0  0  0  0  0
   14.3275    0.2288   -5.3783 C   0  0  0  0  0  0  0  0  0  0  0  0
   15.5172   -1.6879   -4.3384 C   0  0  0  0  0  0  0  0  0  0  0  0
   15.6993   -2.9761   -4.0702 C   0  0  0  0  0  0  0  0  0  0  0  0
   15.7563   -3.1953   -2.7434 F   0  0  0  0  0  0  0  0  0  0  0  0
   18.7648   -7.5954   -4.2102 O   0  0  0  0  0  0  0  0  0  0  0  0
  1  2  1  6
  2  3  1  0
  3  4  2  3
  4  5  1  0
  5  6  2  3
  6  7  1  0
  7  8  2  3
  8  9  1  0
  8 10  1  0
 10 11  1  6
 11 12  2  3
 12 13  1  0
 13 14  1  0
 14 15  1  1
 14 16  1  0
 16 17  2  3
 17 18  1  0
  6 19  1  0
 10  1  1  0
 17  1  1  0
M  END
>  <docking_score>  (3) 
-5.9660000000000002

$$$$
