
     RDKit          3D

 25 28  0  0  0  0  0  0  0  0999 V2000
   19.8608   -6.3336   -6.4699 C   0  0  0  0  0  0  0  0  0  0  0  0
   19.6596   -7.7407   -6.0793 C   0  0  0  0  0  3  0  0  0  0  0  0
   18.8043   -7.9499   -4.8338 C   0  0  0  0  0  0  0  0  0  0  0  0
   17.3349   -7.9233   -5.1787 C   0  0  2  0  0  0  0  0  0  0  0  0
   16.7632   -9.1400   -5.3918 O   0  0  0  0  0  0  0  0  0  0  0  0
   17.5477   -9.8943   -6.1264 O   0  0  0  0  0  0  0  0  0  0  0  0
   17.8949   -9.1215   -7.2648 C   0  0  0  0  0  0  0  0  0  0  0  0
   19.3309   -8.6578   -7.2178 C   0  0  0  0  0  3  0  0  0  0  0  0
   17.3052   -7.0716   -6.4835 C   0  0  0  0  0  0  0  0  0  0  0  0
   17.5258   -5.7922   -6.0220 O   0  0  0  0  0  0  0  0  0  0  0  0
   18.8268   -5.3321   -6.2436 C   0  0  2  0  0  0  0  0  0  0  0  0
   18.6928   -4.1877   -7.1856 C   0  0  2  0  0  0  0  0  0  0  0  0
   20.7688   -3.6724   -6.2434 C   0  0  0  0  0  0  0  0  0  0  0  0
   19.9285   -3.3752   -6.0550 C   0  0  0  0  0  0  0  0  0  0  0  0
   19.4288   -3.2049   -5.9502 C   0  0  0  0  0  0  0  0  0  0  0  0
   18.3485   -2.8425   -5.7441 C   0  0  1  0  0  0  0  0  0  0  0  0
   17.7156   -1.8660   -6.8691 C   0  0  0  0  0  0  0  0  0  0  0  0
   16.7036   -1.2309   -5.8544 C   0  0  0  0  0  0  0  0  0  0  0  0
   16.2076   -2.5624   -5.2644 C   0  0  1  0  0  0  0  0  0  0  0  0
   17.1646   -3.5050   -5.3896 O   0  0  0  0  0  0  0  0  0  0  0  0
   15.5074   -2.3522   -4.0085 C   0  0  0  0  0  3  0  0  0  0  0  0
   16.1928   -3.0838   -2.8400 C   0  0  0  0  0  3  0  0  0  0  0  0
   17.2403   -2.1243   -2.2388 C   0  0  0  0  0  0  0  0  0  0  0  0
   18.5422   -2.9002   -2.0288 C   0  0  0  0  0  0  0  0  0  0  0  0
   18.4461   -4.3599   -2.3359 C   0  0  0  0  0  2  0  0  0  0  0  0
  1  2  1  0
  2  3  1  0
  3  4  1  0
  4  5  1  0
  5  6  1  0
  6  7  1  0
  7  8  1  0
  4  9  1  6
  9 10  1  0
 10 11  1  0
 11 12  1  0
 12 13  1  1
 13 14  1  0
 14 15  3  0
 16 15  1  1
 16 17  1  0
 17 18  1  0
 18 19  1  0
 19 20  1  0
 19 21  1  1
 21 22  1  0
 22 23  1  0
 23 24  1  0
 24 25  1  0
 11  1  1  6
  8  2  1  0
 16 12  1  0
 20 16  1  0
M  RAD  5   2   2   8   2  21   2  22   2  25   3
M  END
>  <docking_score>  (1) 
-4.3869999999999996

$$$$

     RDKit          3D

 25 28  0  0  0  0  0  0  0  0999 V2000
   16.8888   -2.2949   -3.0879 C   0  0  0  0  0  0  0  0  0  0  0  0
   16.2738   -1.2485   -3.9246 C   0  0  0  0  0  3  0  0  0  0  0  0
   16.8241   -1.1492   -5.3437 C   0  0  0  0  0  0  0  0  0  0  0  0
   16.1544   -2.1514   -6.2525 C   0  0  2  0  0  0  0  0  0  0  0  0
   15.0969   -1.6769   -6.9662 O   0  0  0  0  0  0  0  0  0  0  0  0
   14.3262   -0.9332   -6.2066 O   0  0  0  0  0  0  0  0  0  0  0  0
   14.0462   -1.7012   -5.0466 C   0  0  0  0  0  0  0  0  0  0  0  0
   14.7796   -1.1822   -3.8334 C   0  0  0  0  0  3  0  0  0  0  0  0
   15.6880   -3.2569   -5.2579 C   0  0  0  0  0  0  0  0  0  0  0  0
   16.8652   -3.8931   -4.9295 O   0  0  0  0  0  0  0  0  0  0  0  0
   17.3573   -3.5468   -3.6681 C   0  0  2  0  0  0  0  0  0  0  0  0
   17.3064   -4.7959   -2.8605 C   0  0  2  0  0  0  0  0  0  0  0  0
   19.0580   -3.7001   -1.7679 C   0  0  0  0  0  0  0  0  0  0  0  0
   19.0557   -4.3396   -2.4167 C   0  0  0  0  0  0  0  0  0  0  0  0
   19.0452   -4.7175   -2.7998 C   0  0  0  0  0  0  0  0  0  0  0  0
   19.0048   -5.5367   -3.6172 C   0  0  1  0  0  0  0  0  0  0  0  0
   18.5380   -7.0017   -3.1116 C   0  0  0  0  0  0  0  0  0  0  0  0
   19.2636   -7.7239   -4.2986 C   0  0  0  0  0  0  0  0  0  0  0  0
   18.7174   -6.8058   -5.4058 C   0  0  1  0  0  0  0  0  0  0  0  0
   18.4282   -5.5914   -4.8943 O   0  0  0  0  0  0  0  0  0  0  0  0
   19.4815   -6.9511   -6.6333 C   0  0  0  0  0  3  0  0  0  0  0  0
   18.6749   -6.5074   -7.8673 C   0  0  0  0  0  3  0  0  0  0  0  0
   18.2975   -7.7764   -8.6590 C   0  0  0  0  0  0  0  0  0  0  0  0
   18.8234   -8.9951   -7.8979 C   0  0  0  0  0  0  0  0  0  0  0  0
   17.7589   -9.8366   -7.2708 C   0  0  0  0  0  2  0  0  0  0  0  0
  1  2  1  0
  2  3  1  0
  3  4  1  0
  4  5  1  0
  5  6  1  0
  6  7  1  0
  7  8  1  0
  4  9  1  1
  9 10  1  0
 10 11  1  0
 11 12  1  0
 12 13  1  1
 13 14  1  0
 14 15  3  0
 16 15  1  6
 16 17  1  0
 17 18  1  0
 18 19  1  0
 19 20  1  0
 19 21  1  6
 21 22  1  0
 22 23  1  0
 23 24  1  0
 24 25  1  0
 11  1  1  1
  8  2  1  0
 16 12  1  0
 20 16  1  0
M  RAD  5   2   2   8   2  21   2  22   2  25   3
M  END
>  <docking_score>  (2) 
-3.7410000000000001

$$$$

     RDKit          3D

 25 28  0  0  0  0  0  0  0  0999 V2000
   17.2354   -1.4680   -4.7223 C   0  0  0  0  0  0  0  0  0  0  0  0
   16.3598   -1.6885   -5.8876 C   0  0  0  0  0  3  0  0  0  0  0  0
   16.9408   -2.5915   -6.9710 C   0  0  0  0  0  0  0  0  0  0  0  0
   16.7194   -4.0465   -6.6354 C   0  0  2  0  0  0  0  0  0  0  0  0
   15.6162   -4.6136   -7.1956 O   0  0  0  0  0  0  0  0  0  0  0  0
   14.5865   -3.8039   -7.1044 O   0  0  0  0  0  0  0  0  0  0  0  0
   14.5056   -3.4109   -5.7432 C   0  0  0  0  0  0  0  0  0  0  0  0
   14.9305   -1.9763   -5.5419 C   0  0  0  0  0  3  0  0  0  0  0  0
   16.5908   -4.0236   -5.0823 C   0  0  0  0  0  0  0  0  0  0  0  0
   17.8885   -3.8167   -4.6682 O   0  0  0  0  0  0  0  0  0  0  0  0
   18.1431   -2.5068   -4.2529 C   0  0  2  0  0  0  0  0  0  0  0  0
   18.4660   -2.6009   -2.8031 C   0  0  2  0  0  0  0  0  0  0  0  0
   19.7184   -0.7066   -3.3561 C   0  0  0  0  0  0  0  0  0  0  0  0
   19.9516   -1.5835   -3.2753 C   0  0  0  0  0  0  0  0  0  0  0  0
   20.0809   -2.1036   -3.2253 C   0  0  0  0  0  0  0  0  0  0  0  0
   20.3437   -3.2249   -3.1047 C   0  0  1  0  0  0  0  0  0  0  0  0
   20.3566   -3.7768   -1.5831 C   0  0  0  0  0  0  0  0  0  0  0  0
   21.3275   -4.9544   -1.9403 C   0  0  0  0  0  0  0  0  0  0  0  0
   20.5608   -5.4244   -3.1886 C   0  0  1  0  0  0  0  0  0  0  0  0
   19.8713   -4.3934   -3.7193 O   0  0  0  0  0  0  0  0  0  0  0  0
   21.3825   -6.2940   -4.0134 C   0  0  0  0  0  3  0  0  0  0  0  0
   21.0332   -7.7792   -3.8068 C   0  0  0  0  0  3  0  0  0  0  0  0
   19.4959   -7.9045   -3.8298 C   0  0  0  0  0  0  0  0  0  0  0  0
   19.0533   -8.1606   -5.2718 C   0  0  0  0  0  0  0  0  0  0  0  0
   20.1787   -8.3264   -6.2416 C   0  0  0  0  0  2  0  0  0  0  0  0
  1  2  1  0
  2  3  1  0
  3  4  1  0
  4  5  1  0
  5  6  1  0
  6  7  1  0
  7  8  1  0
  4  9  1  1
  9 10  1  0
 10 11  1  0
 11 12  1  0
 12 13  1  6
 13 14  1  0
 14 15  3  0
 16 15  1  6
 16 17  1  0
 17 18  1  0
 18 19  1  0
 19 20  1  0
 19 21  1  6
 21 22  1  0
 22 23  1  0
 23 24  1  0
 24 25  1  0
 11  1  1  1
  8  2  1  0
 16 12  1  0
 20 16  1  0
M  RAD  5   2   2   8   2  21   2  22   2  25   3
M  END
>  <docking_score>  (3) 
-2.1600000000000001

$$$$
