
     RDKit          3D

 35 35  0  0  0  0  0  0  0  0999 V2000
    3.5621    8.9157    7.8850 C   0  0  0  0  0  0  0  0  0  0  0  0
    3.9576    8.6413    6.4792 C   0  0  0  0  0  0  0  0  0  0  0  0
    5.1557    8.4936    6.1344 O   0  0  0  0  0  0  0  0  0  0  0  0
    2.9878    8.5395    5.4903 O   0  0  0  0  0  0  0  0  0  0  0  0
    3.2600    8.4200    4.1222 C   0  0  0  0  0  3  0  0  0  0  0  0
    3.6951    7.0648    3.7218 C   0  0  0  0  0  0  0  0  0  0  0  0
    3.4677    6.1108    4.4336 O   0  0  0  0  0  0  0  0  0  0  0  0
    4.2378    9.4925    3.6972 C   0  0  0  0  0  0  0  0  0  0  0  0
    4.8463    9.1785    2.3412 C   0  0  0  0  0  0  0  0  0  0  0  0
    5.2570   10.4983    1.7202 C   0  0  0  0  0  3  0  0  0  0  0  0
    6.7467   10.6689    1.8691 C   0  0  0  0  0  0  0  0  0  0  0  0
    7.0923   11.9669    2.5298 C   0  0  0  0  0  0  0  0  0  0  0  0
    7.9283   11.7404    3.7491 C   0  0  2  0  0  0  0  0  0  0  0  0
    7.1035   11.3572    4.9155 C   0  0  0  0  0  0  0  0  0  0  0  0
    8.9835   12.6679    3.8689 C   0  0  0  0  0  0  0  0  0  0  0  0
    9.1603   13.8595    3.5845 C   0  0  0  0  0  0  0  0  0  0  0  0
    8.3537   14.8662    2.9887 C   0  0  0  0  0  0  0  0  0  0  0  0
    8.8288   15.8316    2.3813 O   0  0  0  0  0  0  0  0  0  0  0  0
    6.8424   14.8334    3.0524 C   0  0  0  0  0  0  0  0  0  0  0  0
    6.4294   15.8950    4.0364 C   0  0  0  0  0  0  0  0  0  0  0  0
    7.4022   15.8852    5.1836 C   0  0  0  0  0  2  0  0  0  0  0  0
    6.7764   15.1720    6.3407 C   0  0  0  0  0  0  0  0  0  0  0  0
    5.4101   14.7032    5.9807 C   0  0  2  0  0  0  0  0  0  0  0  0
    4.4119   15.7834    5.7889 C   0  0  0  0  0  0  0  0  0  0  0  0
    3.0562   15.2617    5.4563 C   0  0  0  0  0  3  0  0  0  0  0  0
    3.2038   14.0921    4.5109 C   0  0  0  0  0  0  0  0  0  0  0  0
    3.0496   12.7754    5.2482 C   0  0  0  0  0  0  0  0  0  0  0  0
    3.9566   12.7156    6.4290 C   0  0  0  0  0  3  0  0  0  0  0  0
    4.9568   13.5316    6.7403 C   0  0  0  0  0  0  0  0  0  0  0  0
    5.6422   13.2490    7.8986 O   0  0  0  0  0  0  0  0  0  0  0  0
    4.9818   13.1457    9.1211 C   0  0  0  0  0  0  0  0  0  0  0  0
    5.8039   13.7568   10.2066 C   0  0  2  0  0  0  0  0  0  0  0  0
    6.8697   14.5177    9.7335 O   0  0  0  0  0  0  0  0  0  0  0  0
    6.2224   12.7739   11.2177 C   0  0  0  0  0  0  0  0  0  0  0  0
    5.3770   12.2635   11.9166 O   0  0  0  0  0  0  0  0  0  0  0  0
  1  2  1  0
  2  3  2  0
  2  4  1  0
  4  5  1  0
  5  6  1  0
  6  7  2  0
  5  8  1  0
  8  9  1  0
  9 10  1  0
 10 11  1  0
 11 12  1  0
 12 13  1  0
 13 14  1  1
 13 15  1  0
 15 16  2  3
 16 17  1  0
 17 18  2  0
 17 19  1  0
 19 20  1  0
 20 21  1  0
 21 22  1  0
 23 22  1  1
 23 24  1  0
 24 25  1  0
 25 26  1  0
 26 27  1  0
 27 28  1  0
 28 29  2  0
 29 30  1  0
 30 31  1  0
 31 32  1  0
 32 33  1  6
 32 34  1  0
 34 35  2  0
 29 23  1  0
M  RAD  5   5   2  10   2  21   3  25   2  28   2
M  END
>  <docking_score>  (1) 
-3.137

$$$$

     RDKit          3D

 35 35  0  0  0  0  0  0  0  0999 V2000
   13.9068   -0.2378   -5.8102 C   0  0  0  0  0  0  0  0  0  0  0  0
   14.6370   -1.0633   -4.8135 C   0  0  0  0  0  0  0  0  0  0  0  0
   14.4974   -0.9031   -3.5762 O   0  0  0  0  0  0  0  0  0  0  0  0
   15.5117   -2.0551   -5.2377 O   0  0  0  0  0  0  0  0  0  0  0  0
   15.2771   -2.9084   -6.3226 C   0  0  0  0  0  3  0  0  0  0  0  0
   14.9661   -2.1951   -7.5798 C   0  0  0  0  0  0  0  0  0  0  0  0
   15.8113   -2.0660   -8.4386 O   0  0  0  0  0  0  0  0  0  0  0  0
   14.2203   -3.9263   -5.9564 C   0  0  0  0  0  0  0  0  0  0  0  0
   13.8007   -4.7452   -7.1651 C   0  0  0  0  0  0  0  0  0  0  0  0
   14.3765   -6.1351   -6.9838 C   0  0  0  0  0  3  0  0  0  0  0  0
   15.8617   -6.0255   -6.7541 C   0  0  0  0  0  0  0  0  0  0  0  0
   16.2184   -6.2532   -5.3182 C   0  0  0  0  0  0  0  0  0  0  0  0
   17.2384   -7.3390   -5.1863 C   0  0  2  0  0  0  0  0  0  0  0  0
   16.6262   -8.6814   -5.2892 C   0  0  0  0  0  0  0  0  0  0  0  0
   18.2202   -7.0522   -4.2158 C   0  0  0  0  0  0  0  0  0  0  0  0
   18.2906   -6.3508   -3.1983 C   0  0  0  0  0  0  0  0  0  0  0  0
   17.3842   -5.4884   -2.5247 C   0  0  0  0  0  0  0  0  0  0  0  0
   16.5425   -5.9001   -1.7193 O   0  0  0  0  0  0  0  0  0  0  0  0
   17.3799   -3.9913   -2.7429 C   0  0  0  0  0  0  0  0  0  0  0  0
   18.7048   -3.6429   -3.3668 C   0  0  0  0  0  0  0  0  0  0  0  0
   18.7989   -2.1460   -3.4800 C   0  0  0  0  0  2  0  0  0  0  0  0
   18.3344   -1.7349   -4.8418 C   0  0  0  0  0  0  0  0  0  0  0  0
   19.0176   -2.5455   -5.8869 C   0  0  2  0  0  0  0  0  0  0  0  0
   19.4658   -3.8869   -5.4400 C   0  0  0  0  0  0  0  0  0  0  0  0
   20.1661   -4.6469   -6.5137 C   0  0  0  0  0  3  0  0  0  0  0  0
   19.4538   -4.4050   -7.8243 C   0  0  0  0  0  0  0  0  0  0  0  0
   20.1978   -3.3860   -8.6664 C   0  0  0  0  0  0  0  0  0  0  0  0
   20.4672   -2.1446   -7.8875 C   0  0  0  0  0  3  0  0  0  0  0  0
   19.9679   -1.7875   -6.7101 C   0  0  0  0  0  0  0  0  0  0  0  0
   20.3853   -0.5774   -6.2074 O   0  0  0  0  0  0  0  0  0  0  0  0
   19.5499    0.5375   -6.2230 C   0  0  0  0  0  0  0  0  0  0  0  0
   20.2606    1.7246   -5.6635 C   0  0  2  0  0  0  0  0  0  0  0  0
   21.1645    2.2998   -6.5528 O   0  0  0  0  0  0  0  0  0  0  0  0
   20.8633    1.4529   -4.3495 C   0  0  0  0  0  0  0  0  0  0  0  0
   20.8368    0.3219   -3.9209 O   0  0  0  0  0  0  0  0  0  0  0  0
  1  2  1  0
  2  3  2  0
  2  4  1  0
  4  5  1  0
  5  6  1  0
  6  7  2  0
  5  8  1  0
  8  9  1  0
  9 10  1  0
 10 11  1  0
 11 12  1  0
 12 13  1  0
 13 14  1  1
 13 15  1  0
 15 16  2  3
 16 17  1  0
 17 18  2  0
 17 19  1  0
 19 20  1  0
 20 21  1  0
 21 22  1  0
 23 22  1  1
 23 24  1  0
 24 25  1  0
 25 26  1  0
 26 27  1  0
 27 28  1  0
 28 29  2  0
 29 30  1  0
 30 31  1  0
 31 32  1  0
 32 33  1  6
 32 34  1  0
 34 35  2  0
 29 23  1  0
M  RAD  5   5   2  10   2  21   3  25   2  28   2
M  END
>  <docking_score>  (2) 
-1.353

$$$$
