
     RDKit          3D

 28 29  0  0  0  0  0  0  0  0999 V2000
   19.4726   -0.9490   -5.3674 C   0  0  0  0  0  0  0  0  0  0  0  0
   18.1582   -0.5602   -5.5853 O   0  0  0  0  0  0  0  0  0  0  0  0
   17.2502   -1.5454   -5.2030 C   0  0  0  0  0  3  0  0  0  0  0  0
   17.7894   -2.4407   -4.2905 O   0  0  0  0  0  0  0  0  0  0  0  0
   18.6605   -3.3417   -4.8989 C   0  0  2  0  0  0  0  0  0  0  0  0
   18.1625   -3.7655   -6.2625 C   0  0  0  0  0  0  0  0  0  0  0  0
   19.1856   -4.7675   -6.8023 C   0  0  0  0  0  2  0  0  0  0  0  0
   18.9241   -4.5432   -4.0085 C   0  0  2  0  0  0  0  0  0  0  0  0
   17.6667   -4.9687   -3.2782 C   0  0  0  0  0  3  0  0  0  0  0  0
   17.0779   -6.1883   -3.9175 C   0  0  0  0  0  3  0  0  0  0  0  0
   15.6764   -5.9671   -4.3954 C   0  0  2  0  0  0  0  0  0  0  0  0
   14.7905   -7.1402   -4.5397 C   0  0  0  0  0  0  0  0  0  0  0  0
   15.4217   -6.5494   -5.6822 O   0  0  0  0  0  0  0  0  0  0  0  0
   19.8578   -4.1236   -3.0559 O   0  0  0  0  0  0  0  0  0  0  0  0
   19.5601   -2.7972   -2.7513 C   0  0  0  0  0  3  0  0  0  0  0  0
   20.7848   -1.9530   -2.5270 C   0  0  2  0  0  0  0  0  0  0  0  0
   20.5840   -1.1681   -1.2333 C   0  0  0  0  0  0  0  0  0  0  0  0
   21.0923   -1.1349   -3.5937 O   0  0  0  0  0  0  0  0  0  0  0  0
   20.0425   -0.4157   -4.0912 C   0  0  1  0  0  0  0  0  0  0  0  0
   20.6319    1.2682   -4.4238 S   0  0  0  0  0  0  0  0  0  0  0  0
   20.7439    1.6213   -6.1715 C   0  0  0  0  0  3  0  0  0  0  0  0
   20.9018    3.1014   -6.3970 C   0  0  0  0  0  3  0  0  0  0  0  0
   19.5737    3.7713   -6.1582 C   0  0  0  0  0  0  0  0  0  0  0  0
   19.7158    5.2119   -5.7832 C   0  0  2  0  0  0  0  0  0  0  0  0
   20.7230    5.3915   -4.6723 C   0  0  0  0  0  2  0  0  0  0  0  0
   18.4729    5.7177   -5.3783 O   0  0  0  0  0  0  0  0  0  0  0  0
   18.5754    6.4930   -4.3385 O   0  0  0  0  0  0  0  0  0  0  0  0
   17.3859    6.8614   -3.8795 F   0  0  0  0  0  0  0  0  0  0  0  0
  1  2  1  0
  2  3  1  0
  3  4  1  0
  4  5  1  0
  5  6  1  6
  6  7  1  0
  5  8  1  0
  8  9  1  1
  9 10  1  0
 11 10  1  1
 11 12  1  0
 11 13  1  0
  8 14  1  0
 14 15  1  0
 15 16  1  0
 16 17  1  1
 16 18  1  0
 18 19  1  0
 19 20  1  6
 20 21  1  0
 21 22  1  0
 22 23  1  0
 23 24  1  0
 24 25  1  1
 24 26  1  0
 26 27  1  0
 27 28  1  0
 19  1  1  0
 13 12  1  0
M  RAD  8   3   2   7   3   9   2  10   2  15   2  21   2  22   2  25   3
M  END
>  <docking_score>  (1) 
-4.2510000000000003

$$$$

     RDKit          3D

 28 29  0  0  0  0  0  0  0  0999 V2000
    5.8492   11.5497    2.5004 C   0  0  0  0  0  0  0  0  0  0  0  0
    6.9413   10.7257    2.7341 O   0  0  0  0  0  0  0  0  0  0  0  0
    7.8534   11.3022    3.6155 C   0  0  0  0  0  3  0  0  0  0  0  0
    7.2803   12.2900    4.4035 O   0  0  0  0  0  0  0  0  0  0  0  0
    7.0746   13.4693    3.6909 C   0  0  2  0  0  0  0  0  0  0  0  0
    8.2096   13.7463    2.7306 C   0  0  0  0  0  0  0  0  0  0  0  0
    7.8607   15.0548    2.0176 C   0  0  0  0  0  2  0  0  0  0  0  0
    6.8395   14.6449    4.6229 C   0  0  2  0  0  0  0  0  0  0  0  0
    7.7289   14.5588    5.8464 C   0  0  0  0  0  3  0  0  0  0  0  0
    8.3355   15.8946    6.1470 C   0  0  0  0  0  3  0  0  0  0  0  0
    9.8239   15.8996    5.9853 C   0  0  2  0  0  0  0  0  0  0  0  0
   10.3821   16.0750    4.6290 C   0  0  0  0  0  0  0  0  0  0  0  0
   10.3126   14.7783    5.2345 O   0  0  0  0  0  0  0  0  0  0  0  0
    5.5101   14.5460    5.0453 O   0  0  0  0  0  0  0  0  0  0  0  0
    5.2267   13.1889    5.1824 C   0  0  0  0  0  3  0  0  0  0  0  0
    3.8300   12.8306    4.7543 C   0  0  2  0  0  0  0  0  0  0  0  0
    3.2087   11.9694    5.8510 C   0  0  0  0  0  0  0  0  0  0  0  0
    3.7718   12.2250    3.5167 O   0  0  0  0  0  0  0  0  0  0  0  0
    4.6566   11.2001    3.3333 C   0  0  1  0  0  0  0  0  0  0  0  0
    3.7802    9.8556    2.4860 S   0  0  0  0  0  0  0  0  0  0  0  0
    2.2789    9.3794    3.3291 C   0  0  0  0  0  3  0  0  0  0  0  0
    2.4302    8.0085    3.9326 C   0  0  0  0  0  3  0  0  0  0  0  0
    3.7477    7.4278    3.4891 C   0  0  0  0  0  0  0  0  0  0  0  0
    4.6107    7.0166    4.6390 C   0  0  2  0  0  0  0  0  0  0  0  0
    4.3379    5.5876    5.0444 C   0  0  0  0  0  2  0  0  0  0  0  0
    4.3799    7.8674    5.7287 O   0  0  0  0  0  0  0  0  0  0  0  0
    5.3002    8.7803    5.8403 O   0  0  0  0  0  0  0  0  0  0  0  0
    6.3777    8.4836    5.1247 F   0  0  0  0  0  0  0  0  0  0  0  0
  1  2  1  0
  2  3  1  0
  3  4  1  0
  4  5  1  0
  5  6  1  1
  6  7  1  0
  5  8  1  0
  8  9  1  1
  9 10  1  0
 11 10  1  6
 11 12  1  0
 11 13  1  0
  8 14  1  0
 14 15  1  0
 15 16  1  0
 16 17  1  1
 16 18  1  0
 18 19  1  0
 19 20  1  6
 20 21  1  0
 21 22  1  0
 22 23  1  0
 23 24  1  0
 24 25  1  1
 24 26  1  0
 26 27  1  0
 27 28  1  0
 19  1  1  0
 13 12  1  0
M  RAD  8   3   2   7   3   9   2  10   2  15   2  21   2  22   2  25   3
M  END
>  <docking_score>  (2) 
-4.0990000000000002

$$$$

     RDKit          3D

 28 29  0  0  0  0  0  0  0  0999 V2000
   15.1500   -4.2976   -5.4339 C   0  0  0  0  0  0  0  0  0  0  0  0
   15.4568   -4.5417   -6.7653 O   0  0  0  0  0  0  0  0  0  0  0  0
   16.4509   -3.6881   -7.2388 C   0  0  0  0  0  3  0  0  0  0  0  0
   17.2195   -3.1482   -6.2176 O   0  0  0  0  0  0  0  0  0  0  0  0
   16.5424   -2.1401   -5.5348 C   0  0  2  0  0  0  0  0  0  0  0  0
   15.7155   -1.2890   -6.4724 C   0  0  0  0  0  0  0  0  0  0  0  0
   14.7141   -0.5322   -5.5969 C   0  0  0  0  0  2  0  0  0  0  0  0
   17.4967   -1.2909   -4.7138 C   0  0  2  0  0  0  0  0  0  0  0  0
   18.7992   -1.0623   -5.4532 C   0  0  0  0  0  3  0  0  0  0  0  0
   19.7123   -0.1911   -4.6469 C   0  0  0  0  0  3  0  0  0  0  0  0
   19.9353    1.1479   -5.2785 C   0  0  2  0  0  0  0  0  0  0  0  0
   21.3086    1.5150   -5.6796 C   0  0  0  0  0  0  0  0  0  0  0  0
   20.7335    2.0256   -4.4707 O   0  0  0  0  0  0  0  0  0  0  0  0
   17.7771   -2.0278   -3.5589 O   0  0  0  0  0  0  0  0  0  0  0  0
   17.8246   -3.3687   -3.9335 C   0  0  0  0  0  3  0  0  0  0  0  0
   17.2415   -4.2923   -2.8994 C   0  0  2  0  0  0  0  0  0  0  0  0
   18.2303   -5.4341   -2.6780 C   0  0  0  0  0  0  0  0  0  0  0  0
   15.9789   -4.7471   -3.2168 O   0  0  0  0  0  0  0  0  0  0  0  0
   15.8412   -5.2282   -4.4882 C   0  0  1  0  0  0  0  0  0  0  0  0
   14.8508   -6.7465   -4.4025 S   0  0  0  0  0  0  0  0  0  0  0  0
   15.6099   -8.1088   -5.2739 C   0  0  0  0  0  3  0  0  0  0  0  0
   17.1061   -7.9444   -5.2999 C   0  0  0  0  0  3  0  0  0  0  0  0
   17.6613   -8.7513   -6.4446 C   0  0  0  0  0  0  0  0  0  0  0  0
   18.9856   -8.2424   -6.9173 C   0  0  2  0  0  0  0  0  0  0  0  0
   19.7220   -7.5236   -5.8120 C   0  0  0  0  0  2  0  0  0  0  0  0
   18.7964   -7.3727   -8.0002 O   0  0  0  0  0  0  0  0  0  0  0  0
   17.7171   -7.6532   -8.6703 O   0  0  0  0  0  0  0  0  0  0  0  0
   16.8634   -6.6371   -8.6769 F   0  0  0  0  0  0  0  0  0  0  0  0
  1  2  1  0
  2  3  1  0
  3  4  1  0
  4  5  1  0
  5  6  1  6
  6  7  1  0
  5  8  1  0
  8  9  1  6
  9 10  1  0
 11 10  1  1
 11 12  1  0
 11 13  1  0
  8 14  1  0
 14 15  1  0
 15 16  1  0
 16 17  1  6
 16 18  1  0
 18 19  1  0
 19 20  1  1
 20 21  1  0
 21 22  1  0
 22 23  1  0
 23 24  1  0
 24 25  1  1
 24 26  1  0
 26 27  1  0
 27 28  1  0
 19  1  1  0
 13 12  1  0
M  RAD  8   3   2   7   3   9   2  10   2  15   2  21   2  22   2  25   3
M  END
>  <docking_score>  (3) 
-3.9750000000000001

$$$$
