
     RDKit          3D

 24 25  0  0  0  0  0  0  0  0999 V2000
   19.7221   -4.5879   -4.3200 C   0  0  0  0  0  0  0  0  0  0  0  0
   18.5309   -4.3051   -3.4120 C   0  0  1  0  0  0  0  0  0  0  0  0
   19.1045   -4.1624   -2.0070 C   0  0  0  0  0  0  0  0  0  0  0  0
   20.1081   -3.0403   -1.9225 C   0  0  2  0  0  0  0  0  0  0  0  0
   20.3010   -2.7613   -0.5599 O   0  0  0  0  0  0  0  0  0  0  0  0
   19.6269   -1.7662   -2.5595 C   0  0  2  0  0  0  0  0  0  0  0  0
   18.6964   -1.1573   -1.7305 O   0  0  0  0  0  0  0  0  0  0  0  0
   18.9936   -1.9715   -3.9065 C   0  0  1  0  0  0  0  0  0  0  0  0
   19.9617   -2.3829   -4.8283 O   0  0  0  0  0  0  0  0  0  0  0  0
   17.8888   -2.9828   -3.7485 C   0  0  1  0  0  0  0  0  0  0  0  0
   17.0089   -3.0482   -4.8835 N   0  0  0  0  0  0  0  0  0  0  0  0
   15.6394   -3.0278   -4.3873 C   0  0  0  0  0  3  0  0  0  0  0  0
   14.6977   -2.9303   -5.5603 C   0  0  1  0  0  0  0  0  0  0  0  0
   15.0606   -1.8376   -6.5250 C   0  0  1  0  0  0  0  0  0  0  0  0
   15.8277   -0.8344   -5.9625 O   0  0  0  0  0  0  0  0  0  0  0  0
   15.6439   -2.3683   -7.8186 C   0  0  0  0  0  0  0  0  0  0  0  0
   14.8132   -3.3669   -8.2892 O   0  0  0  0  0  0  0  0  0  0  0  0
   15.4320   -4.4166   -8.7399 O   0  0  0  0  0  0  0  0  0  0  0  0
   16.2516   -5.0452   -7.8307 C   0  0  1  0  0  0  0  0  0  0  0  0
   17.5696   -4.5629   -7.8784 O   0  0  0  0  0  0  0  0  0  0  0  0
   15.7689   -4.9934   -6.4140 C   0  0  2  0  0  0  0  0  0  0  0  0
   15.6221   -6.3209   -5.9802 O   0  0  0  0  0  0  0  0  0  0  0  0
   14.4695   -4.2635   -6.2347 C   0  0  1  0  0  0  0  0  0  0  0  0
   13.5574   -5.0166   -5.4824 O   0  0  0  0  0  0  0  0  0  0  0  0
  2  1  1  6
  2  3  1  0
  3  4  1  0
  4  5  1  1
  4  6  1  0
  6  7  1  1
  6  8  1  0
  8  9  1  6
  8 10  1  0
 10 11  1  6
 11 12  1  0
 13 12  1  1
 13 14  1  0
 14 15  1  1
 14 16  1  0
 16 17  1  0
 17 18  1  0
 18 19  1  0
 19 20  1  1
 19 21  1  0
 21 22  1  6
 21 23  1  0
 23 24  1  1
 10  2  1  0
 23 13  1  0
M  RAD  1  12   2
M  END
>  <docking_score>  (1) 
-5.0300000000000002

$$$$

     RDKit          3D

 24 25  0  0  0  0  0  0  0  0999 V2000
   15.3054   -2.7020   -7.5946 C   0  0  0  0  0  0  0  0  0  0  0  0
   16.3333   -1.8651   -6.8418 C   0  0  1  0  0  0  0  0  0  0  0  0
   15.5304   -0.8823   -5.9975 C   0  0  0  0  0  0  0  0  0  0  0  0
   14.6178   -1.5907   -5.0286 C   0  0  2  0  0  0  0  0  0  0  0  0
   14.2066   -0.6408   -4.0797 O   0  0  0  0  0  0  0  0  0  0  0  0
   15.3024   -2.6919   -4.2673 C   0  0  2  0  0  0  0  0  0  0  0  0
   16.1139   -2.1411   -3.2867 O   0  0  0  0  0  0  0  0  0  0  0  0
   16.1486   -3.5824   -5.1326 C   0  0  1  0  0  0  0  0  0  0  0  0
   15.3320   -4.3206   -5.9955 O   0  0  0  0  0  0  0  0  0  0  0  0
   17.1257   -2.7107   -5.8768 C   0  0  1  0  0  0  0  0  0  0  0  0
   18.1866   -3.4504   -6.5045 N   0  0  0  0  0  0  0  0  0  0  0  0
   18.4742   -4.6105   -5.6716 C   0  0  0  0  0  3  0  0  0  0  0  0
   19.6947   -5.3091   -6.2143 C   0  0  1  0  0  0  0  0  0  0  0  0
   20.9372   -5.0441   -5.4128 C   0  0  1  0  0  0  0  0  0  0  0  0
   20.8814   -3.8767   -4.6744 O   0  0  0  0  0  0  0  0  0  0  0  0
   21.3693   -6.2403   -4.5897 C   0  0  0  0  0  0  0  0  0  0  0  0
   21.3817   -7.3495   -5.4132 O   0  0  0  0  0  0  0  0  0  0  0  0
   20.8757   -8.4220   -4.8826 O   0  0  0  0  0  0  0  0  0  0  0  0
   19.5672   -8.3076   -4.4722 C   0  0  1  0  0  0  0  0  0  0  0  0
   19.4622   -7.9032   -3.1315 O   0  0  0  0  0  0  0  0  0  0  0  0
   18.7240   -7.4033   -5.3172 C   0  0  2  0  0  0  0  0  0  0  0  0
   17.6562   -8.1735   -5.8058 O   0  0  0  0  0  0  0  0  0  0  0  0
   19.4573   -6.7798   -6.4692 C   0  0  1  0  0  0  0  0  0  0  0  0
   18.7533   -6.9371   -7.6712 O   0  0  0  0  0  0  0  0  0  0  0  0
  2  1  1  1
  2  3  1  0
  3  4  1  0
  4  5  1  1
  4  6  1  0
  6  7  1  1
  6  8  1  0
  8  9  1  6
  8 10  1  0
 10 11  1  6
 11 12  1  0
 13 12  1  1
 13 14  1  0
 14 15  1  1
 14 16  1  0
 16 17  1  0
 17 18  1  0
 18 19  1  0
 19 20  1  1
 19 21  1  0
 21 22  1  6
 21 23  1  0
 23 24  1  6
 10  2  1  0
 23 13  1  0
M  RAD  1  12   2
M  END
>  <docking_score>  (2) 
-4.9699999999999998

$$$$

     RDKit          3D

 24 25  0  0  0  0  0  0  0  0999 V2000
   15.5377   -2.0078   -7.0693 C   0  0  0  0  0  0  0  0  0  0  0  0
   15.8756   -3.0757   -6.0354 C   0  0  1  0  0  0  0  0  0  0  0  0
   14.6526   -3.9823   -5.9600 C   0  0  0  0  0  0  0  0  0  0  0  0
   14.3436   -4.6187   -7.2915 C   0  0  2  0  0  0  0  0  0  0  0  0
   13.4564   -5.6790   -7.0458 O   0  0  0  0  0  0  0  0  0  0  0  0
   15.5527   -5.2141   -7.9582 C   0  0  2  0  0  0  0  0  0  0  0  0
   15.8873   -6.4050   -7.3310 O   0  0  0  0  0  0  0  0  0  0  0  0
   16.7558   -4.3143   -7.9316 C   0  0  1  0  0  0  0  0  0  0  0  0
   16.5289   -3.1947   -8.7386 O   0  0  0  0  0  0  0  0  0  0  0  0
   17.0216   -3.9403   -6.4971 C   0  0  1  0  0  0  0  0  0  0  0  0
   18.3101   -3.3357   -6.2948 N   0  0  0  0  0  0  0  0  0  0  0  0
   18.6807   -3.5330   -4.8998 C   0  0  0  0  0  3  0  0  0  0  0  0
   18.0428   -2.4493   -4.0685 C   0  0  1  0  0  0  0  0  0  0  0  0
   17.4395   -2.9577   -2.7903 C   0  0  1  0  0  0  0  0  0  0  0  0
   17.1236   -4.3032   -2.8238 O   0  0  0  0  0  0  0  0  0  0  0  0
   18.2478   -2.5740   -1.5679 C   0  0  0  0  0  0  0  0  0  0  0  0
   18.5183   -1.2209   -1.6363 O   0  0  0  0  0  0  0  0  0  0  0  0
   19.7344   -0.8961   -1.3146 O   0  0  0  0  0  0  0  0  0  0  0  0
   20.7164   -1.4863   -2.0768 C   0  0  1  0  0  0  0  0  0  0  0  0
   21.1653   -2.6966   -1.5238 O   0  0  0  0  0  0  0  0  0  0  0  0
   20.3416   -1.7185   -3.5080 C   0  0  2  0  0  0  0  0  0  0  0  0
   21.2755   -1.0261   -4.2957 O   0  0  0  0  0  0  0  0  0  0  0  0
   18.9556   -1.2627   -3.8611 C   0  0  1  0  0  0  0  0  0  0  0  0
   18.9556   -0.4670   -5.0152 O   0  0  0  0  0  0  0  0  0  0  0  0
  2  1  1  6
  2  3  1  0
  3  4  1  0
  4  5  1  1
  4  6  1  0
  6  7  1  1
  6  8  1  0
  8  9  1  6
  8 10  1  0
 10 11  1  6
 11 12  1  0
 13 12  1  1
 13 14  1  0
 14 15  1  6
 14 16  1  0
 16 17  1  0
 17 18  1  0
 18 19  1  0
 19 20  1  1
 19 21  1  0
 21 22  1  6
 21 23  1  0
 23 24  1  6
 10  2  1  0
 23 13  1  0
M  RAD  1  12   2
M  END
>  <docking_score>  (3) 
-4.8970000000000002

$$$$
