
     RDKit          3D

 76 76  0  0  0  0  0  0  0  0999 V2000
   17.1830    3.9741    1.7397 C   0  0  0  0  0  0  0  0  0  0  0  0
   17.8575    5.1636    1.1232 C   0  0  0  0  0  0  0  0  0  0  0  0
   19.0633    4.4628    0.5709 C   0  0  0  0  0  0  0  0  0  0  0  0
   18.1887    6.5526    0.6637 C   0  0  0  0  0  0  0  0  0  0  0  0
   18.1499    8.0284    0.3987 C   0  0  0  0  0  0  0  0  0  0  0  0
   17.7442    9.4717    0.3496 C   0  0  0  0  0  0  0  0  0  0  0  0
   17.0045   10.7654    0.5203 C   0  0  0  0  0  0  0  0  0  0  0  0
   17.9675   11.6590   -0.2036 C   0  0  0  0  0  0  0  0  0  0  0  0
   15.9906   11.8047    0.8970 C   0  0  0  0  0  3  0  0  0  0  0  0
   14.7848   12.5054    1.4492 C   0  0  0  0  0  0  0  0  0  0  0  0
   13.4847   12.8108    2.1322 C   0  0  0  0  0  0  0  0  0  0  0  0
   12.1956   12.6962    2.8906 C   0  0  0  0  0  0  0  0  0  0  0  0
   11.7899   14.1394    2.8415 C   0  0  0  0  0  0  0  0  0  0  0  0
   11.0221   12.1707    3.6630 C   0  0  0  0  0  3  0  0  0  0  0  0
   10.0590   11.2770    4.3868 C   0  0  0  0  0  0  0  0  0  0  0  0
    9.3846   10.0875    5.0034 C   0  0  0  0  0  0  0  0  0  0  0  0
    9.0533    8.6985    5.4628 C   0  0  0  0  0  0  0  0  0  0  0  0
    7.7533    9.0040    6.1458 C   0  0  0  0  0  0  0  0  0  0  0  0
    6.4600    8.8435    5.4031 C   0  0  0  0  0  0  0  0  0  0  0  0
    5.9220    7.4718    5.1216 C   0  0  0  0  0  0  0  0  0  0  0  0
    6.6773    6.2607    5.5828 O   0  0  0  0  0  0  0  0  0  0  0  0
    4.6287    7.3114    4.3788 C   0  0  0  0  0  0  0  0  0  0  0  0
    4.5830    7.5328    2.8959 C   0  0  0  0  0  0  0  0  0  0  0  0
    3.3811    6.9295    5.1189 C   0  0  0  0  0  0  0  0  0  0  0  0
    2.9588    7.7085    6.3291 C   0  0  0  0  0  0  0  0  0  0  0  0
    9.0922    7.2226    5.7278 C   0  0  0  0  0  0  0  0  0  0  0  0
    7.8031    7.1080    6.4862 C   0  0  0  0  0  0  0  0  0  0  0  0
    9.4979    5.7793    5.7770 C   0  0  0  0  0  0  0  0  0  0  0  0
   10.2376    4.4857    5.6063 C   0  0  0  0  0  0  0  0  0  0  0  0
   11.2515    3.4464    5.2296 C   0  0  0  0  0  0  0  0  0  0  0  0
   10.5770    2.2568    5.8461 C   0  0  0  0  0  0  0  0  0  0  0  0
   12.4572    2.7456    4.6774 C   0  0  0  0  0  0  0  0  0  0  0  0
   13.7574    2.4402    3.9944 C   0  0  0  0  0  0  0  0  0  0  0  0
   15.0464    2.5549    3.2360 C   0  0  0  0  0  0  0  0  0  0  0  0
   15.4522    1.1117    3.2851 C   0  0  0  0  0  0  0  0  0  0  0  0
   16.2200    3.0804    2.4635 C   0  0  0  0  0  3  0  0  0  0  0  0
   16.9598    1.7867    2.2928 C   0  0  0  0  0  0  0  0  0  0  0  0
   16.2316    0.5628    1.8219 C   0  0  0  0  0  0  0  0  0  0  0  0
   15.4526   -0.2683    2.7978 C   0  0  0  0  0  0  0  0  0  0  0  0
   14.4993   -1.3136    2.2993 C   0  0  0  0  0  0  0  0  0  0  0  0
   14.5006   -1.7000    0.8499 C   0  0  0  0  0  0  0  0  0  0  0  0
   13.9930   -3.0484    0.4326 C   0  0  0  0  0  0  0  0  0  0  0  0
   14.9082   -4.2365    0.4626 C   0  0  0  0  0  0  0  0  0  0  0  0
   14.8035   -5.2360    1.5761 C   0  0  0  0  0  0  0  0  0  0  0  0
   15.9281   -4.4250   -0.6210 C   0  0  0  0  0  0  0  0  0  0  0  0
   15.7918   -5.5625   -1.5895 C   0  0  0  0  0  0  0  0  0  0  0  0
   16.9861   -6.0348   -2.3643 C   0  0  0  0  0  0  0  0  0  0  0  0
   17.7479   -7.2429   -1.9056 C   0  0  0  0  0  0  0  0  0  0  0  0
   18.3582   -8.1718   -2.9128 C   0  0  0  0  0  0  0  0  0  0  0  0
   17.6045   -8.5248   -4.1607 C   0  0  0  0  0  0  0  0  0  0  0  0
   17.3533   -9.9633   -4.5036 C   0  0  0  0  0  0  0  0  0  0  0  0
   17.1020   -7.4393   -5.0658 C   0  0  0  0  0  3  0  0  0  0  0  0
   16.6225   -6.1415   -4.4861 C   0  0  0  0  0  0  0  0  0  0  0  0
   15.3843   -5.4904   -5.0272 C   0  0  0  0  0  0  0  0  0  0  0  0
   14.6614   -6.1035   -6.1897 C   0  0  0  0  0  0  0  0  0  0  0  0
   14.8691   -4.2261   -4.4058 C   0  0  0  0  0  0  0  0  0  0  0  0
   13.6391   -3.5670   -4.9561 C   0  0  0  0  0  0  0  0  0  0  0  0
   13.7670   -2.4535   -5.9529 C   0  0  0  0  0  0  0  0  0  0  0  0
   12.6435   -1.4763   -6.1341 C   0  0  0  0  0  0  0  0  0  0  0  0
   15.0184   -2.3173   -6.7686 C   0  0  0  0  0  0  0  0  0  0  0  0
   16.3121   -2.8779   -6.2568 C   0  0  0  0  0  0  0  0  0  0  0  0
   16.7503   -4.2514   -6.6707 C   0  0  0  0  0  0  0  0  0  0  0  0
   18.1769   -4.4970   -7.0638 C   0  0  0  0  0  0  0  0  0  0  0  0
   18.4918   -5.4031   -8.2169 C   0  0  0  0  0  0  0  0  0  0  0  0
   17.7614   -6.7043   -8.3695 C   0  0  0  0  0  0  0  0  0  0  0  0
   16.8873   -7.2083   -7.2594 C   0  0  0  0  0  0  0  0  0  0  0  0
   17.3096   -8.4022   -6.4556 C   0  0  0  0  0  0  0  0  0  0  0  0
   19.2886   -3.8363   -6.3037 C   0  0  0  0  0  0  0  0  0  0  0  0
   20.2154   -4.6620   -5.4614 C   0  0  0  0  0  0  0  0  0  0  0  0
   21.2989   -5.4708   -6.1108 F   0  0  0  0  0  0  0  0  0  0  0  0
   19.4735   -2.3500   -6.3859 C   0  0  0  0  0  0  0  0  0  0  0  0
   20.7553   -1.7821   -6.9189 C   0  0  0  0  0  0  0  0  0  0  0  0
   18.3765   -1.4316   -5.9350 C   0  0  0  0  0  0  0  0  0  0  0  0
   18.2360   -1.0878   -4.4817 C   0  0  0  0  0  0  0  0  0  0  0  0
   19.0128    0.0578   -3.9035 O   0  0  0  0  0  1  0  0  0  0  0  0
   17.4200   -0.8571   -6.9374 C   0  0  0  0  0  0  0  0  0  0  0  0
  1  2  1  0
  2  3  1  0
  2  4  1  0
  4  5  1  0
  5  6  1  0
  6  7  1  0
  7  8  1  0
  7  9  1  0
  9 10  1  0
 10 11  1  0
 11 12  1  0
 12 13  1  0
 12 14  1  0
 14 15  1  0
 15 16  1  0
 16 17  1  0
 17 18  1  0
 18 19  1  0
 19 20  2  3
 20 21  1  0
 20 22  1  0
 22 23  1  0
 22 24  1  0
 24 25  1  0
 17 26  1  0
 26 27  1  0
 26 28  1  0
 28 29  1  0
 29 30  1  0
 30 31  1  0
 30 32  1  0
 32 33  1  0
 33 34  1  0
 34 35  1  0
 34 36  1  0
 36 37  1  0
 37 38  1  0
 38 39  1  0
 39 40  1  0
 40 41  1  0
 41 42  1  0
 42 43  1  0
 43 44  1  0
 43 45  1  0
 45 46  1  0
 46 47  1  0
 47 48  1  0
 48 49  1  0
 49 50  1  0
 50 51  1  0
 50 52  1  0
 52 53  1  0
 53 54  1  0
 54 55  1  0
 54 56  1  0
 56 57  1  0
 57 58  1  0
 58 59  1  0
 58 60  1  0
 60 61  1  0
 61 62  1  0
 62 63  1  0
 63 64  1  0
 64 65  1  0
 65 66  1  0
 66 67  1  0
 63 68  1  0
 68 69  1  0
 69 70  1  0
 68 71  1  0
 71 72  1  0
 71 73  1  0
 73 74  1  0
 74 75  1  0
 73 76  1  0
 36  1  1  0
M  CHG  1  75  -1
M  RAD  4   9   2  14   2  36   2  52   2
M  END
>  <docking_score>  (1) 
97.120000000000005

$$$$
