
     RDKit          3D

 84 84  0  0  0  0  0  0  0  0999 V2000
    9.4179    2.9448    8.8391 O   0  0  0  0  0  0  0  0  0  0  0  0
    9.7811    4.1416    9.5297 C   0  0  0  0  0  0  0  0  0  0  0  0
   10.9344    3.7674   10.4702 C   0  0  0  0  0  3  0  0  0  0  0  0
   11.9397    2.9860    9.8088 N   0  0  0  0  0  0  0  0  0  0  0  0
   13.2619    3.2924   10.2887 C   0  0  2  0  0  0  0  0  0  0  0  0
   13.8526    4.3441    9.3785 C   0  0  0  0  0  0  0  0  0  0  0  0
   13.5143    4.0238    8.0706 O   0  0  0  0  0  0  0  0  0  0  0  0
   14.1843    2.1135   10.3554 C   0  0  1  0  0  0  0  0  0  0  0  0
   15.2536    2.3209    9.5115 O   0  0  0  0  0  0  0  0  0  0  0  0
   14.6940    1.8048   11.7393 C   0  0  1  0  0  0  0  0  0  0  0  0
   14.4457    0.4824   12.0958 O   0  0  0  0  0  0  0  0  0  0  0  0
   16.1898    2.0701   11.8840 C   0  0  0  0  0  3  0  0  0  0  0  0
   16.4629    3.4017   12.5184 C   0  0  0  0  0  0  0  0  0  0  0  0
   15.6378    4.3796   12.2665 C   0  0  0  0  0  0  0  0  0  0  0  0
   15.7139    5.7592   12.7772 C   0  0  0  0  0  0  0  0  0  0  0  0
   15.8330    5.7983   14.2148 N   0  0  0  0  0  3  0  0  0  0  0  0
   16.6150    4.7822   14.6242 O   0  0  0  0  0  0  0  0  0  0  0  0
   14.5436    5.7405   14.8603 C   0  0  1  0  0  0  0  0  0  0  0  0
   14.7808    5.1465   16.2368 C   0  0  0  0  0  0  0  0  0  0  0  0
   13.9977    7.0054   15.0328 O   0  0  0  0  0  0  0  0  0  0  0  0
   13.9903    7.6464   13.8470 N   0  0  0  0  0  2  0  0  0  0  0  0
   13.1213    8.6937   13.8640 O   0  0  0  0  0  0  0  0  0  0  0  0
   13.3839    9.4020   15.0325 C   0  0  1  0  0  0  0  0  0  0  0  0
   14.6839    9.1132   15.4971 O   0  0  0  0  0  0  0  0  0  0  0  0
   13.3928   10.9105   14.7614 C   0  0  2  0  0  0  0  0  0  0  0  0
   14.1351   11.4731   15.8152 O   0  0  0  0  0  0  0  0  0  0  0  0
   12.0737   11.3664   14.9114 O   0  0  0  0  0  0  0  0  0  0  0  0
   12.0987   12.6992   15.0508 N   0  0  0  0  0  3  0  0  0  0  0  0
   12.2738   13.0558   16.3521 O   0  0  0  0  0  0  0  0  0  0  0  0
   10.8075   13.2047   14.5815 C   0  0  0  0  0  0  0  0  0  0  0  0
   10.4276   14.2855   15.3836 O   0  0  0  0  0  0  0  0  0  0  0  0
    9.1050   14.4431   15.3532 O   0  0  0  0  0  0  0  0  0  0  0  0
    8.7096   14.7809   14.0365 C   0  0  0  0  0  0  0  0  0  0  0  0
    8.6292   13.5628   13.3206 O   0  0  0  0  0  0  0  0  0  0  0  0
    7.7087   13.8012   12.2723 C   0  0  0  0  0  0  0  0  0  0  0  0
    8.5031   14.2418   11.1514 O   0  0  0  0  0  0  0  0  0  0  0  0
    8.2403   13.5086    9.9693 N   0  0  0  0  0  0  0  0  0  0  0  0
    7.0823   13.8915    9.4471 C   0  0  0  0  0  0  0  0  0  0  0  0
    6.6035   13.4154    8.4191 N   0  0  0  0  0  4  0  0  0  0  0  0
    6.1330   12.9608    7.3882 C   0  0  0  0  0  0  0  0  0  0  0  0
    5.6550   12.4675    6.3079 O   0  0  0  0  0  0  0  0  0  0  0  0
    4.9956   11.1963    6.3208 C   0  0  0  0  0  0  0  0  0  0  0  0
    4.7623   10.8089    7.6379 O   0  0  0  0  0  0  0  0  0  0  0  0
    3.3824   10.6624    7.8227 C   0  0  1  0  0  0  0  0  0  0  0  0
    2.7275   11.9640    7.6266 N   0  0  0  0  0  3  0  0  0  0  0  0
    2.3004   11.9598    6.3197 O   0  0  0  0  0  0  0  0  0  0  0  0
    3.7283   12.9165    7.7437 O   0  0  0  0  0  0  0  0  0  0  0  0
    3.3859   14.2252    7.5416 C   0  0  0  0  0  0  0  0  0  0  0  0
    3.0781   15.3933    7.3596 C   0  0  0  0  0  0  0  0  0  0  0  0
    2.8472    9.7380    6.7281 C   0  0  0  0  0  0  0  0  0  0  0  0
    4.0199    8.9163    6.2643 N   0  0  0  0  0  0  0  0  0  0  0  0
    4.8229    8.4788    7.3497 O   0  0  0  0  0  0  0  0  0  0  0  0
    4.2784    8.6694    5.1384 C   0  0  0  0  0  0  0  0  0  0  0  0
    4.5845    8.4005    3.7972 C   0  0  0  0  0  0  0  0  0  0  0  0
    4.8574    8.1329    2.5494 C   0  0  0  0  0  0  0  0  0  0  0  0
    4.5816    6.7927    2.1561 O   0  0  0  0  0  0  0  0  0  0  0  0
    4.2842    6.0305    3.2999 C   0  0  0  0  0  0  0  0  0  0  0  0
    5.3504    5.7109    4.0344 N   0  0  0  0  0  4  0  0  0  0  0  0
    6.1978    5.4493    4.6030 C   0  0  0  0  0  0  0  0  0  0  0  0
    7.2199    5.1553    5.2933 C   0  0  0  0  0  0  0  0  0  0  0  0
    8.1115    4.8972    5.8826 C   0  0  0  0  0  0  0  0  0  0  0  0
    9.1965    4.5894    6.5723 O   0  0  0  0  0  0  0  0  0  0  0  0
    9.8251    3.3605    6.5443 N   0  0  0  0  0  4  0  0  0  0  0  0
   10.4564    2.8470    5.3737 N   0  0  0  0  0  1  0  0  0  0  0  0
    9.9132    2.6021    7.6043 C   0  0  0  0  0  0  0  0  0  0  0  0
   10.6083    1.2947    7.3303 C   0  0  2  0  0  0  0  0  0  0  0  0
   11.7139    1.4964    6.5291 O   0  0  0  0  0  0  0  0  0  0  0  0
    9.5707    0.5421    6.6442 O   0  0  0  0  0  0  0  0  0  0  0  0
    8.9676   -0.5218    7.1662 C   0  0  0  0  0  0  0  0  0  0  0  0
    8.4330   -1.4909    7.6318 C   0  0  0  0  0  0  0  0  0  0  0  0
    7.8069   -2.6532    8.2040 C   0  0  0  0  0  0  0  0  0  0  0  0
    7.3015   -3.6017    8.6916 C   0  0  0  0  0  0  0  0  0  0  0  0
    6.7337   -4.6429    9.2484 N   0  0  0  0  0  4  0  0  0  0  0  0
    6.2482   -5.5378    9.7481 C   0  0  0  0  0  0  0  0  0  0  0  0
    5.6648   -6.6577   10.3659 C   0  0  0  0  0  0  0  0  0  0  0  0
    5.1862   -7.5977   10.8969 C   0  0  0  0  0  0  0  0  0  0  0  0
    4.6498   -8.6823   11.5263 O   0  0  0  0  0  0  0  0  0  0  0  0
    4.6172   -9.8931   10.7175 C   0  0  0  0  0  3  0  0  0  0  0  0
    5.3478   -9.6691    9.5568 N   0  0  0  0  0  4  0  0  0  0  0  0
    5.9758   -9.4637    8.5510 C   0  0  0  0  0  0  0  0  0  0  0  0
    6.7227   -9.2331    7.3806 C   0  0  0  0  0  0  0  0  0  0  0  0
    7.3752   -9.0466    6.3838 C   0  0  0  0  0  0  0  0  0  0  0  0
    8.0694   -8.8367    5.2920 N   0  0  0  0  0  4  0  0  0  0  0  0
    8.7292   -8.6275    4.2845 C   0  0  0  0  0  0  0  0  0  0  0  0
  1  2  1  0
  2  3  1  0
  3  4  1  0
  4  5  1  0
  5  6  1  6
  6  7  1  0
  5  8  1  0
  8  9  1  6
  8 10  1  0
 10 11  1  6
 10 12  1  0
 12 13  1  0
 13 14  2  3
 14 15  1  0
 15 16  1  0
 16 17  1  0
 16 18  1  0
 18 19  1  1
 18 20  1  0
 20 21  1  0
 21 22  1  0
 22 23  1  0
 23 24  1  6
 23 25  1  0
 25 26  1  1
 25 27  1  0
 27 28  1  0
 28 29  1  0
 28 30  1  0
 30 31  1  0
 31 32  1  0
 32 33  1  0
 33 34  1  0
 34 35  1  0
 35 36  1  0
 36 37  1  0
 37 38  2  3
 38 39  1  0
 39 40  3  0
 40 41  1  0
 41 42  1  0
 42 43  1  0
 43 44  1  0
 44 45  1  6
 45 46  1  0
 45 47  1  0
 47 48  1  0
 48 49  3  0
 44 50  1  0
 50 51  1  0
 51 52  1  0
 51 53  1  0
 53 54  3  0
 54 55  1  0
 55 56  1  0
 56 57  1  0
 57 58  1  0
 58 59  3  0
 59 60  1  0
 60 61  3  0
 61 62  1  0
 62 63  1  0
 63 64  1  0
 63 65  2  3
 65 66  1  0
 66 67  1  6
 66 68  1  0
 68 69  1  0
 69 70  3  0
 70 71  1  0
 71 72  3  0
 72 73  1  0
 73 74  3  0
 74 75  1  0
 75 76  3  0
 76 77  1  0
 77 78  1  0
 78 79  1  0
 79 80  3  0
 80 81  1  0
 81 82  3  0
 82 83  1  0
 83 84  3  0
 65  1  1  0
M  CHG  8  16   1  21   1  28   1  39   1  45   1  58   1  63   1  64   1
M  RAD  8   3   2  12   2  16   2  21   3  28   2  45   2  64   2  78   2
M  CHG  3  73   1  79   1  83   1
M  END
>  <docking_score>  (1) 
233.703

$$$$
