
     RDKit          3D

 11 11  0  0  0  0  0  0  0  0999 V2000
   15.4682   -6.1459   -4.8002 O   0  0  0  0  0  0  0  0  0  0  0  0
   16.7886   -5.8710   -4.5176 C   0  0  0  0  0  0  0  0  0  0  0  0
   17.0328   -4.3984   -4.2259 C   0  0  1  0  0  0  0  0  0  0  0  0
   15.7360   -3.8293   -3.8783 N   0  0  0  0  0  0  0  0  0  0  0  0
   15.9322   -2.4586   -3.4951 C   0  0  0  0  0  0  0  0  0  0  0  0
   16.7653   -2.3372   -2.2325 C   0  0  2  0  0  0  0  0  0  0  0  0
   17.9093   -1.6002   -2.5870 O   0  0  0  0  0  0  0  0  0  0  0  0
   17.2561   -3.7369   -1.8845 C   0  0  1  0  0  0  0  0  0  0  0  0
   16.1916   -4.5696   -1.5784 O   0  0  0  0  0  0  0  0  0  0  0  0
   18.0165   -4.2745   -3.0686 C   0  0  1  0  0  0  0  0  0  0  0  0
   18.5745   -5.4972   -2.7312 O   0  0  0  0  0  0  0  0  0  0  0  0
  1  2  1  0
  3  2  1  1
  3  4  1  0
  4  5  1  0
  5  6  1  0
  6  7  1  6
  6  8  1  0
  8  9  1  6
  8 10  1  0
 10 11  1  1
 10  3  1  0
M  END
>  <docking_score>  (1) 
-3.3290000000000002

$$$$

     RDKit          3D

 11 11  0  0  0  0  0  0  0  0999 V2000
   14.3985    0.4276   -5.6531 O   0  0  0  0  0  0  0  0  0  0  0  0
   13.9172   -0.5446   -4.8033 C   0  0  0  0  0  0  0  0  0  0  0  0
   14.4108   -1.9374   -5.1642 C   0  0  1  0  0  0  0  0  0  0  0  0
   15.0513   -1.8195   -6.4688 N   0  0  0  0  0  0  0  0  0  0  0  0
   15.6241   -3.0927   -6.8076 C   0  0  0  0  0  0  0  0  0  0  0  0
   16.7403   -3.4826   -5.8562 C   0  0  2  0  0  0  0  0  0  0  0  0
   16.3378   -4.6873   -5.2525 O   0  0  0  0  0  0  0  0  0  0  0  0
   16.7644   -2.4410   -4.7445 C   0  0  1  0  0  0  0  0  0  0  0  0
   17.0909   -1.1919   -5.2477 O   0  0  0  0  0  0  0  0  0  0  0  0
   15.4008   -2.4068   -4.1051 C   0  0  1  0  0  0  0  0  0  0  0  0
   15.4338   -1.5535   -3.0138 O   0  0  0  0  0  0  0  0  0  0  0  0
  1  2  1  0
  3  2  1  1
  3  4  1  0
  4  5  1  0
  5  6  1  0
  6  7  1  1
  6  8  1  0
  8  9  1  6
  8 10  1  0
 10 11  1  1
 10  3  1  0
M  END
>  <docking_score>  (2) 
-3.27

$$$$

     RDKit          3D

 11 11  0  0  0  0  0  0  0  0999 V2000
    4.8012   10.9361    2.1609 O   0  0  0  0  0  0  0  0  0  0  0  0
    6.0267   10.4374    2.5460 C   0  0  0  0  0  0  0  0  0  0  0  0
    7.1478   11.4547    2.3989 C   0  0  1  0  0  0  0  0  0  0  0  0
    6.5247   12.6850    1.9251 N   0  0  0  0  0  0  0  0  0  0  0  0
    7.5315   13.7082    1.8674 C   0  0  0  0  0  0  0  0  0  0  0  0
    8.0737   14.0476    3.2435 C   0  0  2  0  0  0  0  0  0  0  0  0
    9.4505   13.7643    3.2032 O   0  0  0  0  0  0  0  0  0  0  0  0
    7.4661   13.0500    4.2218 C   0  0  1  0  0  0  0  0  0  0  0  0
    6.0904   13.2025    4.2892 O   0  0  0  0  0  0  0  0  0  0  0  0
    7.8157   11.6617    3.7529 C   0  0  1  0  0  0  0  0  0  0  0  0
    7.3763   10.7425    4.6921 O   0  0  0  0  0  0  0  0  0  0  0  0
  1  2  1  0
  3  2  1  1
  3  4  1  0
  4  5  1  0
  5  6  1  0
  6  7  1  6
  6  8  1  0
  8  9  1  6
  8 10  1  0
 10 11  1  1
 10  3  1  0
M  END
>  <docking_score>  (3) 
-3.2639999999999998

$$$$
