
     RDKit          3D

 12 12  0  0  0  0  0  0  0  0999 V2000
   14.9022   -6.6643   -4.6286 C   0  0  0  0  0  0  0  0  0  0  0  0
   15.5619   -5.4469   -4.9962 O   0  0  0  0  0  0  0  0  0  0  0  0
   16.0724   -4.5788   -4.0220 C   0  0  0  0  0  0  0  0  0  0  0  0
   17.0089   -4.9977   -3.0983 C   0  0  0  0  0  0  0  0  0  0  0  0
   17.5020   -4.1288   -2.1449 C   0  0  0  0  0  0  0  0  0  0  0  0
   17.0208   -2.8386   -2.1590 C   0  0  0  0  0  0  0  0  0  0  0  0
   16.0857   -2.4140   -3.0786 C   0  0  0  0  0  0  0  0  0  0  0  0
   15.5875   -3.2839   -4.0383 C   0  0  0  0  0  0  0  0  0  0  0  0
   14.5766   -2.8490   -5.0413 C   0  0  0  0  0  0  0  0  0  0  0  0
   15.1975   -1.8864   -5.9721 C   0  0  0  0  0  0  0  0  0  0  0  0
   14.9863   -0.4248   -5.8231 C   0  0  0  0  0  0  0  0  0  0  0  0
   15.8920   -2.2979   -6.8733 O   0  0  0  0  0  0  0  0  0  0  0  0
  1  2  1  0
  2  3  1  0
  3  4  2  0
  4  5  1  0
  5  6  2  0
  6  7  1  0
  7  8  2  0
  8  9  1  0
  9 10  1  0
 10 11  1  0
 10 12  2  0
  8  3  1  0
M  END
>  <docking_score>  (1) 
-3.9830000000000001

$$$$

     RDKit          3D

 12 12  0  0  0  0  0  0  0  0999 V2000
   16.6557   -4.1964   -1.8242 C   0  0  0  0  0  0  0  0  0  0  0  0
   16.7461   -4.0055   -3.2413 O   0  0  0  0  0  0  0  0  0  0  0  0
   15.8047   -4.5752   -4.1087 C   0  0  0  0  0  0  0  0  0  0  0  0
   15.7187   -5.9413   -4.2877 C   0  0  0  0  0  0  0  0  0  0  0  0
   14.7845   -6.4863   -5.1463 C   0  0  0  0  0  0  0  0  0  0  0  0
   13.9516   -5.6121   -5.8086 C   0  0  0  0  0  0  0  0  0  0  0  0
   14.0323   -4.2470   -5.6343 C   0  0  0  0  0  0  0  0  0  0  0  0
   14.9697   -3.6952   -4.7725 C   0  0  0  0  0  0  0  0  0  0  0  0
   15.0767   -2.2242   -4.5685 C   0  0  0  0  0  0  0  0  0  0  0  0
   15.4691   -1.5839   -5.8391 C   0  0  0  0  0  0  0  0  0  0  0  0
   16.8148   -1.7996   -6.4271 C   0  0  0  0  0  0  0  0  0  0  0  0
   14.6776   -0.8700   -6.4117 O   0  0  0  0  0  0  0  0  0  0  0  0
  1  2  1  0
  2  3  1  0
  3  4  2  0
  4  5  1  0
  5  6  2  0
  6  7  1  0
  7  8  2  0
  8  9  1  0
  9 10  1  0
 10 11  1  0
 10 12  2  0
  8  3  1  0
M  END
>  <docking_score>  (2) 
-3.8700000000000001

$$$$

     RDKit          3D

 12 12  0  0  0  0  0  0  0  0999 V2000
   15.2421   -2.4509   -6.4699 C   0  0  0  0  0  0  0  0  0  0  0  0
   14.7533   -3.1869   -5.3422 O   0  0  0  0  0  0  0  0  0  0  0  0
   15.5027   -3.2833   -4.1622 C   0  0  0  0  0  0  0  0  0  0  0  0
   15.8240   -2.1676   -3.4154 C   0  0  0  0  0  0  0  0  0  0  0  0
   16.5631   -2.2806   -2.2544 C   0  0  0  0  0  0  0  0  0  0  0  0
   16.9602   -3.5451   -1.8806 C   0  0  0  0  0  0  0  0  0  0  0  0
   16.6427   -4.6631   -2.6217 C   0  0  0  0  0  0  0  0  0  0  0  0
   15.9002   -4.5542   -3.7891 C   0  0  0  0  0  0  0  0  0  0  0  0
   15.5457   -5.7469   -4.6068 C   0  0  0  0  0  0  0  0  0  0  0  0
   16.7641   -6.2749   -5.2510 C   0  0  0  0  0  0  0  0  0  0  0  0
   17.5395   -5.4589   -6.2185 C   0  0  0  0  0  0  0  0  0  0  0  0
   17.1372   -7.3945   -4.9842 O   0  0  0  0  0  0  0  0  0  0  0  0
  1  2  1  0
  2  3  1  0
  3  4  2  0
  4  5  1  0
  5  6  2  0
  6  7  1  0
  7  8  2  0
  8  9  1  0
  9 10  1  0
 10 11  1  0
 10 12  2  0
  8  3  1  0
M  END
>  <docking_score>  (3) 
-3.7480000000000002

$$$$
