
     RDKit          3D

 29 29  0  0  0  0  0  0  0  0999 V2000
   13.9080   -3.7793   -5.3593 C   0  0  0  0  0  0  0  0  0  0  0  0
   15.0367   -2.7983   -5.4600 C   0  0  0  0  0  0  0  0  0  0  0  0
   15.9117   -3.0296   -6.6596 C   0  0  0  0  0  0  0  0  0  0  0  0
   14.5073   -1.3709   -5.5172 C   0  0  0  0  0  0  0  0  0  0  0  0
   15.8479   -2.8903   -4.1706 C   0  0  0  0  0  0  0  0  0  0  0  0
   17.3149   -3.0385   -4.4546 C   0  0  1  0  0  0  0  0  0  0  0  0
   17.9603   -1.7777   -4.2390 N   0  0  0  0  0  0  0  0  0  0  0  0
   18.9123   -1.3160   -4.9268 C   0  0  0  0  0  0  0  0  0  0  0  0
   19.4693   -2.0736   -6.0685 C   0  0  2  0  0  0  0  0  0  0  0  0
   18.7383   -1.9026   -7.2324 O   0  0  0  0  0  0  0  0  0  0  0  0
   19.6863   -3.4618   -5.8010 N   0  0  0  0  0  0  0  0  0  0  0  0
   18.9944   -4.3311   -6.7335 C   0  0  0  0  0  0  0  0  0  0  0  0
   19.6694   -5.6353   -6.7567 C   0  0  0  0  0  0  0  0  0  0  0  0
   19.1816   -6.7715   -6.3489 C   0  0  0  0  0  0  0  0  0  0  0  0
   17.8538   -6.9716   -5.7826 C   0  0  0  0  0  0  0  0  0  0  0  0
   17.3048   -8.0843   -6.0224 O   0  0  0  0  0  0  0  0  0  0  0  0
   17.2897   -5.9294   -5.0235 N   0  0  0  0  0  0  0  0  0  0  0  0
   17.8047   -5.3484   -3.8548 C   0  0  0  0  0  0  0  0  0  0  0  0
   17.8444   -4.0868   -3.5473 C   0  0  0  0  0  0  0  0  0  0  0  0
   18.4318   -3.6487   -2.2544 C   0  0  0  0  0  0  0  0  0  0  0  0
   20.0743   -7.9800   -6.4800 C   0  0  0  0  0  0  0  0  0  0  0  0
   20.7456   -8.2398   -5.1272 C   0  0  0  0  0  2  0  0  0  0  0  0
   19.5436    0.0238   -4.6391 C   0  0  0  0  0  0  0  0  0  0  0  0
   20.9009    0.1218   -5.1855 C   0  0  0  0  0  0  0  0  0  0  0  0
   21.3808    1.3225   -5.4846 C   0  0  0  0  0  0  0  0  0  0  0  0
   20.6087    2.5202   -5.2876 N   0  0  0  0  0  0  0  0  0  0  0  0
   21.1921    3.8321   -5.4497 C   0  0  0  0  0  3  0  0  0  0  0  0
   21.3759    4.4556   -4.1060 C   0  0  0  0  0  0  0  0  0  0  0  0
   20.7891    5.4754   -3.7638 O   0  0  0  0  0  0  0  0  0  0  0  0
  1  2  1  0
  2  3  1  0
  2  4  1  0
  2  5  1  0
  6  5  1  1
  6  7  1  0
  7  8  2  3
  8  9  1  0
  9 10  1  6
  9 11  1  0
 11 12  1  0
 12 13  1  0
 13 14  2  3
 14 15  1  0
 15 16  2  0
 15 17  1  0
 17 18  1  0
 18 19  2  3
 19 20  1  0
 14 21  1  0
 21 22  1  0
  8 23  1  0
 23 24  1  0
 24 25  2  3
 25 26  1  0
 26 27  1  0
 27 28  1  0
 28 29  2  0
 19  6  1  0
M  RAD  2  22   3  27   2
M  END
>  <docking_score>  (1) 
-4.0389999999999997

$$$$

     RDKit          3D

 29 29  0  0  0  0  0  0  0  0999 V2000
   20.8640   -5.7040   -8.1968 C   0  0  0  0  0  0  0  0  0  0  0  0
   20.2373   -5.0322   -7.0126 C   0  0  0  0  0  0  0  0  0  0  0  0
   20.1803   -5.9148   -5.7978 C   0  0  0  0  0  0  0  0  0  0  0  0
   20.9947   -3.7610   -6.6502 C   0  0  0  0  0  0  0  0  0  0  0  0
   18.8380   -4.5809   -7.4218 C   0  0  0  0  0  0  0  0  0  0  0  0
   17.7769   -5.3650   -6.7049 C   0  0  1  0  0  0  0  0  0  0  0  0
   17.0338   -4.4780   -5.8600 N   0  0  0  0  0  0  0  0  0  0  0  0
   16.5814   -4.7637   -4.7171 C   0  0  0  0  0  0  0  0  0  0  0  0
   16.7899   -6.1027   -4.1244 C   0  0  2  0  0  0  0  0  0  0  0  0
   18.0234   -6.2290   -3.5072 O   0  0  0  0  0  0  0  0  0  0  0  0
   16.5578   -7.1866   -5.0283 N   0  0  0  0  0  0  0  0  0  0  0  0
   17.7036   -8.0661   -5.1611 C   0  0  0  0  0  0  0  0  0  0  0  0
   17.2414   -9.3812   -5.6235 C   0  0  0  0  0  0  0  0  0  0  0  0
   17.5044   -9.9398   -6.7697 C   0  0  0  0  0  0  0  0  0  0  0  0
   18.3192   -9.3603   -7.8301 C   0  0  0  0  0  0  0  0  0  0  0  0
   18.9848  -10.1732   -8.5324 O   0  0  0  0  0  0  0  0  0  0  0  0
   18.3057   -7.9624   -7.9916 N   0  0  0  0  0  0  0  0  0  0  0  0
   17.1988   -7.1447   -8.2648 C   0  0  0  0  0  0  0  0  0  0  0  0
   16.9118   -5.9946   -7.7332 C   0  0  0  0  0  0  0  0  0  0  0  0
   15.6864   -5.2626   -8.1470 C   0  0  0  0  0  0  0  0  0  0  0  0
   16.9126  -11.3058   -7.0113 C   0  0  0  0  0  0  0  0  0  0  0  0
   17.7859  -12.0422   -8.0327 C   0  0  0  0  0  2  0  0  0  0  0  0
   15.8055   -3.7747   -3.8830 C   0  0  0  0  0  0  0  0  0  0  0  0
   15.7163   -2.4606   -4.5277 C   0  0  0  0  0  0  0  0  0  0  0  0
   16.7024   -1.5922   -4.3407 C   0  0  0  0  0  0  0  0  0  0  0  0
   17.8471   -1.9057   -3.5278 N   0  0  0  0  0  0  0  0  0  0  0  0
   19.1235   -1.2619   -3.7375 C   0  0  0  0  0  3  0  0  0  0  0  0
   19.7007   -0.8770   -2.4158 C   0  0  0  0  0  0  0  0  0  0  0  0
   19.5754   -1.5687   -1.4123 O   0  0  0  0  0  0  0  0  0  0  0  0
  1  2  1  0
  2  3  1  0
  2  4  1  0
  2  5  1  0
  6  5  1  6
  6  7  1  0
  7  8  2  3
  8  9  1  0
  9 10  1  6
  9 11  1  0
 11 12  1  0
 12 13  1  0
 13 14  2  3
 14 15  1  0
 15 16  2  0
 15 17  1  0
 17 18  1  0
 18 19  2  3
 19 20  1  0
 14 21  1  0
 21 22  1  0
  8 23  1  0
 23 24  1  0
 24 25  2  3
 25 26  1  0
 26 27  1  0
 27 28  1  0
 28 29  2  0
 19  6  1  0
M  RAD  2  22   3  27   2
M  END
>  <docking_score>  (2) 
-2.673

$$$$
