
     RDKit          3D

 15 16  0  0  0  0  0  0  0  0999 V2000
   16.2338   -4.5926   -2.0041 C   0  0  0  0  0  0  0  0  0  0  0  0
   17.0778   -3.3508   -2.1527 C   0  0  1  0  0  0  0  0  0  0  0  0
   18.5449   -3.7163   -1.9816 C   0  0  0  0  0  0  0  0  0  0  0  0
   18.7346   -5.0162   -2.7493 C   0  0  2  0  0  0  0  0  0  0  0  0
   20.0809   -5.1619   -2.9850 O   0  0  0  0  0  0  0  0  0  0  0  0
   17.9696   -5.0172   -4.0382 C   0  0  2  0  0  0  0  0  0  0  0  0
   18.6398   -5.7015   -5.0321 O   0  0  0  0  0  0  0  0  0  0  0  0
   17.6410   -3.6378   -4.5509 C   0  0  1  0  0  0  0  0  0  0  0  0
   16.8376   -3.7987   -5.6760 O   0  0  0  0  0  0  0  0  0  0  0  0
   16.9149   -2.7888   -3.5320 C   0  0  1  0  0  0  0  0  0  0  0  0
   15.4922   -2.6647   -3.8512 N   0  0  0  0  0  0  0  0  0  0  0  0
   15.0899   -1.3062   -3.4932 C   0  0  0  0  0  3  0  0  0  0  0  0
   14.0030   -0.8496   -4.4406 C   0  0  2  0  0  0  0  0  0  0  0  0
   14.5166    0.0090   -5.5846 C   0  0  0  0  0  0  0  0  0  0  0  0
   13.7067    0.5285   -4.4477 O   0  0  0  0  0  0  0  0  0  0  0  0
  2  1  1  6
  2  3  1  0
  3  4  1  0
  4  5  1  6
  4  6  1  0
  6  7  1  6
  6  8  1  0
  8  9  1  6
  8 10  1  0
 10 11  1  6
 11 12  1  0
 13 12  1  1
 13 14  1  0
 13 15  1  0
 10  2  1  0
 15 14  1  0
M  RAD  1  12   2
M  END
>  <docking_score>  (1) 
-4.242

$$$$

     RDKit          3D

 15 16  0  0  0  0  0  0  0  0999 V2000
    5.5611   11.9366    5.2679 C   0  0  0  0  0  0  0  0  0  0  0  0
    6.7719   11.0591    5.0667 C   0  0  1  0  0  0  0  0  0  0  0  0
    6.3394    9.6003    5.0540 C   0  0  0  0  0  0  0  0  0  0  0  0
    5.0647    9.5591    4.2241 C   0  0  2  0  0  0  0  0  0  0  0  0
    4.8730    8.2565    3.8293 O   0  0  0  0  0  0  0  0  0  0  0  0
    5.1474   10.4652    3.0330 C   0  0  2  0  0  0  0  0  0  0  0  0
    4.4765    9.9447    1.9448 O   0  0  0  0  0  0  0  0  0  0  0  0
    6.5588   10.7866    2.6108 C   0  0  1  0  0  0  0  0  0  0  0  0
    6.4769   11.7195    1.5812 O   0  0  0  0  0  0  0  0  0  0  0  0
    7.3954   11.3522    3.7362 C   0  0  1  0  0  0  0  0  0  0  0  0
    7.5910   12.7949    3.5882 N   0  0  0  0  0  0  0  0  0  0  0  0
    9.0283   13.0434    3.6774 C   0  0  0  0  0  3  0  0  0  0  0  0
    9.2886   14.5142    3.4401 C   0  0  2  0  0  0  0  0  0  0  0  0
    9.2981   14.8991    1.9699 C   0  0  0  0  0  0  0  0  0  0  0  0
   10.5136   14.8502    2.8292 O   0  0  0  0  0  0  0  0  0  0  0  0
  2  1  1  6
  2  3  1  0
  3  4  1  0
  4  5  1  6
  4  6  1  0
  6  7  1  6
  6  8  1  0
  8  9  1  6
  8 10  1  0
 10 11  1  6
 11 12  1  0
 13 12  1  6
 13 14  1  0
 13 15  1  0
 10  2  1  0
 15 14  1  0
M  RAD  1  12   2
M  END
>  <docking_score>  (2) 
-4.0910000000000002

$$$$

     RDKit          3D

 15 16  0  0  0  0  0  0  0  0999 V2000
   17.5597   -3.9026   -6.0514 C   0  0  0  0  0  0  0  0  0  0  0  0
   16.2222   -4.5904   -5.9313 C   0  0  1  0  0  0  0  0  0  0  0  0
   16.4155   -6.0936   -6.0669 C   0  0  0  0  0  0  0  0  0  0  0  0
   17.6589   -6.4209   -5.2533 C   0  0  2  0  0  0  0  0  0  0  0  0
   17.6357   -7.7701   -4.9916 O   0  0  0  0  0  0  0  0  0  0  0  0
   17.7105   -5.6363   -3.9772 C   0  0  2  0  0  0  0  0  0  0  0  0
   18.2786   -6.3632   -2.9506 O   0  0  0  0  0  0  0  0  0  0  0  0
   16.3646   -5.1365   -3.5163 C   0  0  1  0  0  0  0  0  0  0  0  0
   16.5846   -4.3359   -2.3992 O   0  0  0  0  0  0  0  0  0  0  0  0
   15.6405   -4.3351   -4.5744 C   0  0  1  0  0  0  0  0  0  0  0  0
   15.6768   -2.9016   -4.2819 N   0  0  0  0  0  0  0  0  0  0  0  0
   14.5171   -2.3013   -4.9378 C   0  0  0  0  0  3  0  0  0  0  0  0
   14.6882   -0.7988   -4.9604 C   0  0  2  0  0  0  0  0  0  0  0  0
   13.4794   -0.0426   -4.4345 C   0  0  0  0  0  0  0  0  0  0  0  0
   13.8815   -0.0830   -5.8680 O   0  0  0  0  0  0  0  0  0  0  0  0
  2  1  1  1
  2  3  1  0
  3  4  1  0
  4  5  1  1
  4  6  1  0
  6  7  1  1
  6  8  1  0
  8  9  1  1
  8 10  1  0
 10 11  1  1
 11 12  1  0
 13 12  1  6
 13 14  1  0
 13 15  1  0
 10  2  1  0
 15 14  1  0
M  RAD  1  12   2
M  END
>  <docking_score>  (3) 
-4.0529999999999999

$$$$
