
     RDKit          3D

 18 20  0  0  0  0  0  0  0  0999 V2000
   13.5393   -0.1087   -4.2287 C   0  0  0  0  0  0  0  0  0  0  0  0
   14.0366    0.3155   -5.4621 O   0  0  0  0  0  0  0  0  0  0  0  0
   14.8192   -0.6978   -5.9763 C   0  0  0  0  0  0  0  0  0  0  0  0
   15.0789   -1.8063   -5.0078 C   0  0  2  0  0  0  0  0  0  0  0  0
   16.5053   -2.0883   -4.6633 C   0  0  1  0  0  0  0  0  0  0  0  0
   17.4678   -1.7523   -5.5573 O   0  0  0  0  0  0  0  0  0  0  0  0
   16.8629   -2.4806   -3.2960 C   0  0  2  0  0  0  0  0  0  0  0  0
   18.1890   -3.2340   -3.2703 C   0  0  1  0  0  0  0  0  0  0  0  0
   18.4003   -3.6298   -1.8014 C   0  0  0  0  0  0  0  0  0  0  0  0
   19.7562   -3.1724   -1.3403 C   0  0  0  0  0  0  0  0  0  0  0  0
   20.6827   -4.2125   -1.4376 O   0  0  0  0  0  0  0  0  0  0  0  0
   15.8289   -3.4460   -3.3310 O   0  0  0  0  0  0  0  0  0  0  0  0
   16.1047   -3.5738   -4.6803 C   0  0  1  0  0  0  0  0  0  0  0  0
   15.0443   -3.2100   -5.6363 C   0  0  1  0  0  0  0  0  0  0  0  0
   13.8169   -3.7993   -5.2630 O   0  0  0  0  0  0  0  0  0  0  0  0
   17.2771   -4.3487   -5.0922 C   0  0  1  0  0  0  0  0  0  0  0  0
   17.9863   -3.8636   -6.1675 O   0  0  0  0  0  0  0  0  0  0  0  0
   18.1721   -4.3958   -3.9983 O   0  0  0  0  0  0  0  0  0  0  0  0
  1  2  1  0
  2  3  1  0
  4  3  1  6
  4  5  1  0
  5  6  1  6
  5  7  1  0
  7  8  1  0
  8  9  1  1
  9 10  1  0
 10 11  1  0
  7 12  1  6
 13 12  1  1
 13 14  1  0
 14 15  1  1
 13 16  1  0
 16 17  1  6
 16 18  1  0
 14  4  1  0
 13  5  1  0
 18  8  1  0
M  END
>  <docking_score>  (1) 
-4.3680000000000003

$$$$

     RDKit          3D

 18 20  0  0  0  0  0  0  0  0999 V2000
   12.8306   -5.3292   -8.6717 C   0  0  0  0  0  0  0  0  0  0  0  0
   13.9874   -4.5486   -8.6449 O   0  0  0  0  0  0  0  0  0  0  0  0
   14.8921   -5.1579   -7.8000 C   0  0  0  0  0  0  0  0  0  0  0  0
   15.7522   -4.1954   -7.0462 C   0  0  2  0  0  0  0  0  0  0  0  0
   15.3107   -3.8241   -5.6678 C   0  0  1  0  0  0  0  0  0  0  0  0
   13.9926   -3.9122   -5.3623 O   0  0  0  0  0  0  0  0  0  0  0  0
   16.3077   -3.6176   -4.6121 C   0  0  2  0  0  0  0  0  0  0  0  0
   15.7497   -2.7436   -3.4935 C   0  0  1  0  0  0  0  0  0  0  0  0
   16.9100   -2.5650   -2.5032 C   0  0  0  0  0  0  0  0  0  0  0  0
   17.5321   -3.8997   -2.2010 C   0  0  0  0  0  0  0  0  0  0  0  0
   18.8409   -3.7370   -1.7423 O   0  0  0  0  0  0  0  0  0  0  0  0
   17.0248   -2.7721   -5.4914 O   0  0  0  0  0  0  0  0  0  0  0  0
   15.7962   -2.4045   -6.0096 C   0  0  1  0  0  0  0  0  0  0  0  0
   15.5232   -2.7214   -7.4223 C   0  0  1  0  0  0  0  0  0  0  0  0
   16.6079   -2.3299   -8.2366 O   0  0  0  0  0  0  0  0  0  0  0  0
   14.9682   -1.4563   -5.2614 C   0  0  1  0  0  0  0  0  0  0  0  0
   13.6116   -1.6886   -5.2675 O   0  0  0  0  0  0  0  0  0  0  0  0
   15.3839   -1.4895   -3.9102 O   0  0  0  0  0  0  0  0  0  0  0  0
  1  2  1  0
  2  3  1  0
  4  3  1  6
  4  5  1  0
  5  6  1  1
  5  7  1  0
  7  8  1  0
  8  9  1  1
  9 10  1  0
 10 11  1  0
  7 12  1  6
 13 12  1  6
 13 14  1  0
 14 15  1  6
 13 16  1  0
 16 17  1  1
 16 18  1  0
 14  4  1  0
 13  5  1  0
 18  8  1  0
M  END
>  <docking_score>  (2) 
-4.2699999999999996

$$$$

     RDKit          3D

 18 20  0  0  0  0  0  0  0  0999 V2000
   17.6053   -8.5029   -6.0109 C   0  0  0  0  0  0  0  0  0  0  0  0
   17.8219   -7.3514   -6.7697 O   0  0  0  0  0  0  0  0  0  0  0  0
   17.9750   -6.2915   -5.8998 C   0  0  0  0  0  0  0  0  0  0  0  0
   16.7134   -5.5279   -5.6558 C   0  0  2  0  0  0  0  0  0  0  0  0
   16.8435   -4.0592   -5.4128 C   0  0  1  0  0  0  0  0  0  0  0  0
   18.0109   -3.5848   -4.9121 O   0  0  0  0  0  0  0  0  0  0  0  0
   15.8305   -3.1389   -5.9402 C   0  0  2  0  0  0  0  0  0  0  0  0
   15.8200   -1.8285   -5.1596 C   0  0  1  0  0  0  0  0  0  0  0  0
   14.6833   -1.0000   -5.7762 C   0  0  0  0  0  0  0  0  0  0  0  0
   13.6475   -0.6972   -4.7295 C   0  0  0  0  0  0  0  0  0  0  0  0
   13.7271    0.6397   -4.3347 O   0  0  0  0  0  0  0  0  0  0  0  0
   14.8268   -3.9687   -5.3867 O   0  0  0  0  0  0  0  0  0  0  0  0
   15.7256   -4.2404   -4.3711 C   0  0  1  0  0  0  0  0  0  0  0  0
   16.1860   -5.6311   -4.2143 C   0  0  1  0  0  0  0  0  0  0  0  0
   15.0908   -6.5215   -4.2383 O   0  0  0  0  0  0  0  0  0  0  0  0
   15.9277   -3.2414   -3.3196 C   0  0  1  0  0  0  0  0  0  0  0  0
   17.2153   -3.0884   -2.8580 O   0  0  0  0  0  0  0  0  0  0  0  0
   15.5233   -1.9862   -3.8302 O   0  0  0  0  0  0  0  0  0  0  0  0
  1  2  1  0
  2  3  1  0
  4  3  1  1
  4  5  1  0
  5  6  1  1
  5  7  1  0
  7  8  1  0
  8  9  1  6
  9 10  1  0
 10 11  1  0
  7 12  1  1
 13 12  1  6
 13 14  1  0
 14 15  1  6
 13 16  1  0
 16 17  1  6
 16 18  1  0
 14  4  1  0
 13  5  1  0
 18  8  1  0
M  END
>  <docking_score>  (3) 
-4.2560000000000002

$$$$
