
     RDKit          3D

 20 19  0  0  0  0  0  0  0  0999 V2000
   20.1479   -3.0832   -0.6923 C   0  0  0  0  0  0  0  0  0  0  0  0
   20.7880   -4.0224   -1.5601 O   0  0  0  0  0  0  0  0  0  0  0  0
   21.0817   -3.5903   -2.8337 C   0  0  0  0  0  0  0  0  0  0  0  0
   20.5309   -4.1126   -3.8911 C   0  0  0  0  0  0  0  0  0  0  0  0
   19.5499   -5.2102   -3.7683 C   0  0  0  0  0  0  0  0  0  0  0  0
   18.2991   -5.0532   -4.1709 C   0  0  0  0  0  0  0  0  0  0  0  0
   17.7800   -3.7954   -4.7663 C   0  0  0  0  0  0  0  0  0  0  0  0
   16.7054   -3.2493   -3.8891 C   0  0  2  0  0  0  0  0  0  0  0  0
   15.3800   -3.0759   -4.5506 C   0  0  0  0  0  0  0  0  0  0  0  0
   15.2577   -1.7446   -5.2746 C   0  0  0  0  0  0  0  0  0  0  0  0
   13.8522   -1.2202   -5.0045 C   0  0  0  0  0  0  0  0  0  0  0  0
   13.8963    0.2393   -4.6233 C   0  0  0  0  0  0  0  0  0  0  0  0
   17.1123   -2.1025   -3.0606 C   0  0  0  0  0  0  0  0  0  0  0  0
   16.2596   -1.6008   -1.9511 C   0  0  0  0  0  0  0  0  0  0  0  0
   18.1811   -1.5353   -3.2799 O   0  0  0  0  0  0  0  0  0  0  0  0
   17.4319   -6.1699   -4.0098 N   0  0  0  0  0  0  0  0  0  0  0  0
   17.1626   -7.1231   -5.0409 C   0  0  0  0  0  0  0  0  0  0  0  0
   15.8567   -6.7679   -5.7110 C   0  0  0  0  0  0  0  0  0  0  0  0
   14.7296   -6.6940   -4.7593 C   0  0  0  0  0  0  0  0  0  0  0  0
   14.3099   -7.7020   -4.1852 O   0  0  0  0  0  0  0  0  0  0  0  0
  1  2  1  0
  2  3  1  0
  3  4  2  3
  4  5  1  0
  5  6  2  3
  6  7  1  0
  8  7  1  6
  8  9  1  0
  9 10  1  0
 10 11  1  0
 11 12  1  0
  8 13  1  0
 13 14  1  0
 13 15  2  0
  6 16  1  0
 16 17  1  0
 17 18  1  0
 18 19  1  0
 19 20  2  0
M  END
>  <docking_score>  (1) 
-3.661

$$$$

     RDKit          3D

 20 19  0  0  0  0  0  0  0  0999 V2000
   17.0616   -6.8513   -5.8097 C   0  0  0  0  0  0  0  0  0  0  0  0
   16.1317   -5.8576   -6.2488 O   0  0  0  0  0  0  0  0  0  0  0  0
   15.1593   -5.4779   -5.3513 C   0  0  0  0  0  0  0  0  0  0  0  0
   15.0260   -4.2478   -4.9473 C   0  0  0  0  0  0  0  0  0  0  0  0
   15.9277   -3.1877   -5.4428 C   0  0  0  0  0  0  0  0  0  0  0  0
   16.3704   -2.2382   -4.6344 C   0  0  0  0  0  0  0  0  0  0  0  0
   16.0126   -2.1523   -3.1954 C   0  0  0  0  0  0  0  0  0  0  0  0
   17.1348   -2.7010   -2.3816 C   0  0  2  0  0  0  0  0  0  0  0  0
   18.4869   -2.1878   -2.7464 C   0  0  0  0  0  0  0  0  0  0  0  0
   19.0300   -1.1969   -1.7293 C   0  0  0  0  0  0  0  0  0  0  0  0
   20.3686   -1.7443   -1.2477 C   0  0  0  0  0  0  0  0  0  0  0  0
   21.1883   -2.2390   -2.4143 C   0  0  0  0  0  0  0  0  0  0  0  0
   17.0870   -4.1573   -2.1723 C   0  0  0  0  0  0  0  0  0  0  0  0
   18.1700   -5.0511   -2.6604 C   0  0  0  0  0  0  0  0  0  0  0  0
   16.1341   -4.6616   -1.5809 O   0  0  0  0  0  0  0  0  0  0  0  0
   17.2339   -1.2632   -5.2077 N   0  0  0  0  0  0  0  0  0  0  0  0
   18.0653   -1.5074   -6.3450 C   0  0  0  0  0  0  0  0  0  0  0  0
   19.4555   -0.9918   -6.0585 C   0  0  0  0  0  0  0  0  0  0  0  0
   19.4481    0.3242   -5.3876 C   0  0  0  0  0  0  0  0  0  0  0  0
   20.2710    0.5999   -4.5109 O   0  0  0  0  0  0  0  0  0  0  0  0
  1  2  1  0
  2  3  1  0
  3  4  2  3
  4  5  1  0
  5  6  2  3
  6  7  1  0
  8  7  1  6
  8  9  1  0
  9 10  1  0
 10 11  1  0
 11 12  1  0
  8 13  1  0
 13 14  1  0
 13 15  2  0
  6 16  1  0
 16 17  1  0
 17 18  1  0
 18 19  1  0
 19 20  2  0
M  END
>  <docking_score>  (2) 
-3.347

$$$$

     RDKit          3D

 20 19  0  0  0  0  0  0  0  0999 V2000
   20.6440   -1.0171   -1.1975 C   0  0  0  0  0  0  0  0  0  0  0  0
   20.3405   -1.9546   -2.2338 O   0  0  0  0  0  0  0  0  0  0  0  0
   20.1826   -3.2686   -1.8551 C   0  0  0  0  0  0  0  0  0  0  0  0
   19.0228   -3.8595   -1.8561 C   0  0  0  0  0  0  0  0  0  0  0  0
   17.8050   -3.1335   -2.2708 C   0  0  0  0  0  0  0  0  0  0  0  0
   17.0000   -3.6283   -3.1972 C   0  0  0  0  0  0  0  0  0  0  0  0
   17.2389   -4.9221   -3.8864 C   0  0  0  0  0  0  0  0  0  0  0  0
   16.9546   -4.7582   -5.3407 C   0  0  2  0  0  0  0  0  0  0  0  0
   16.3749   -5.9595   -6.0082 C   0  0  0  0  0  0  0  0  0  0  0  0
   16.1240   -7.1031   -5.0384 C   0  0  0  0  0  0  0  0  0  0  0  0
   16.8978   -8.3072   -5.5627 C   0  0  0  0  0  0  0  0  0  0  0  0
   18.3414   -8.2384   -5.1282 C   0  0  0  0  0  0  0  0  0  0  0  0
   18.0319   -4.1120   -6.1081 C   0  0  0  0  0  0  0  0  0  0  0  0
   19.4149   -4.6570   -6.1210 C   0  0  0  0  0  0  0  0  0  0  0  0
   17.7972   -3.0957   -6.7593 O   0  0  0  0  0  0  0  0  0  0  0  0
   15.8531   -2.8529   -3.5264 N   0  0  0  0  0  0  0  0  0  0  0  0
   15.5578   -1.5819   -2.9421 C   0  0  0  0  0  0  0  0  0  0  0  0
   14.5207   -0.8806   -3.7866 C   0  0  0  0  0  0  0  0  0  0  0  0
   14.6628   -1.1776   -5.2266 C   0  0  0  0  0  0  0  0  0  0  0  0
   14.2856   -0.3762   -6.0853 O   0  0  0  0  0  0  0  0  0  0  0  0
  1  2  1  0
  2  3  1  0
  3  4  2  3
  4  5  1  0
  5  6  2  3
  6  7  1  0
  8  7  1  1
  8  9  1  0
  9 10  1  0
 10 11  1  0
 11 12  1  0
  8 13  1  0
 13 14  1  0
 13 15  2  0
  6 16  1  0
 16 17  1  0
 17 18  1  0
 18 19  1  0
 19 20  2  0
M  END
>  <docking_score>  (3) 
-3.1819999999999999

$$$$
