
     RDKit          3D

 24 25  0  0  0  0  0  0  0  0999 V2000
   18.5081   -6.7957   -3.5735 C   0  0  0  0  0  0  0  0  0  0  0  0
   18.7561   -6.0743   -4.9036 C   0  0  1  0  0  0  0  0  0  0  0  0
   19.7408   -6.9502   -5.6764 C   0  0  0  0  0  0  0  0  0  0  0  0
   19.0176   -8.1599   -6.2228 C   0  0  2  0  0  0  0  0  0  0  0  0
   18.5977   -7.8175   -7.5114 O   0  0  0  0  0  0  0  0  0  0  0  0
   17.7990   -8.4044   -5.3530 C   0  0  2  0  0  0  0  0  0  0  0  0
   17.2757   -9.6741   -5.5809 O   0  0  0  0  0  0  0  0  0  0  0  0
   16.7773   -7.3430   -5.7435 C   0  0  1  0  0  0  0  0  0  0  0  0
   15.6438   -7.3881   -4.9465 O   0  0  0  0  0  0  0  0  0  0  0  0
   17.4501   -5.9951   -5.6627 C   0  0  1  0  0  0  0  0  0  0  0  0
   16.5510   -5.0993   -4.9751 N   0  0  0  0  0  0  0  0  0  0  0  0
   17.1175   -3.7662   -4.8352 C   0  0  1  0  0  0  0  0  0  0  0  0
   16.8772   -3.1095   -6.1996 C   0  0  0  0  0  0  0  0  0  0  0  0
   17.0160   -1.6253   -5.9676 C   0  0  2  0  0  0  0  0  0  0  0  0
   17.6727   -1.2919   -4.7994 O   0  0  0  0  0  0  0  0  0  0  0  0
   15.6416   -1.0050   -6.0235 C   0  0  1  0  0  0  0  0  0  0  0  0
   14.8988   -1.5452   -7.0322 O   0  0  0  0  0  0  0  0  0  0  0  0
   14.9593   -1.1155   -4.6921 C   0  0  1  0  0  0  0  0  0  0  0  0
   13.6192   -0.7456   -4.8014 O   0  0  0  0  0  0  0  0  0  0  0  0
   15.0065   -2.5790   -4.2414 C   0  0  1  0  0  0  0  0  0  0  0  0
   14.6233   -3.3263   -5.3715 O   0  0  0  0  0  0  0  0  0  0  0  0
   16.4142   -2.9334   -3.8009 C   0  0  1  0  0  0  0  0  0  0  0  0
   16.4706   -3.4572   -2.5563 O   0  0  0  0  0  0  0  0  0  0  0  0
   17.6080   -3.6018   -1.9967 O   0  0  0  0  0  0  0  0  0  0  0  0
  2  1  1  1
  2  3  1  0
  3  4  1  0
  4  5  1  6
  4  6  1  0
  6  7  1  6
  6  8  1  0
  8  9  1  1
  8 10  1  0
 10 11  1  1
 12 11  1  6
 12 13  1  0
 13 14  1  0
 14 15  1  1
 14 16  1  0
 16 17  1  6
 16 18  1  0
 18 19  1  6
 18 20  1  0
 20 21  1  6
 20 22  1  0
 22 23  1  1
 23 24  1  0
 10  2  1  0
 22 12  1  0
M  END
>  <docking_score>  (1) 
-5.1289999999999996

$$$$

     RDKit          3D

 24 25  0  0  0  0  0  0  0  0999 V2000
    5.4298    9.6977    2.5106 C   0  0  0  0  0  0  0  0  0  0  0  0
    4.5822   10.7837    3.1840 C   0  0  1  0  0  0  0  0  0  0  0  0
    3.2086   10.1569    3.4169 C   0  0  0  0  0  0  0  0  0  0  0  0
    3.2845    9.1951    4.5807 C   0  0  2  0  0  0  0  0  0  0  0  0
    2.9374    9.9281    5.7191 O   0  0  0  0  0  0  0  0  0  0  0  0
    4.7240    8.7334    4.7081 C   0  0  2  0  0  0  0  0  0  0  0  0
    4.8123    7.6110    5.5269 O   0  0  0  0  0  0  0  0  0  0  0  0
    5.4896    9.8940    5.3323 C   0  0  1  0  0  0  0  0  0  0  0  0
    6.8505    9.6417    5.4121 O   0  0  0  0  0  0  0  0  0  0  0  0
    5.2092   11.1313    4.5160 C   0  0  1  0  0  0  0  0  0  0  0  0
    6.4682   11.8006    4.2917 N   0  0  0  0  0  0  0  0  0  0  0  0
    6.2921   13.2307    4.0888 C   0  0  1  0  0  0  0  0  0  0  0  0
    7.1181   13.8748    5.2084 C   0  0  0  0  0  0  0  0  0  0  0  0
    7.3449   15.3027    4.7776 C   0  0  2  0  0  0  0  0  0  0  0  0
    6.4846   15.7419    3.7908 O   0  0  0  0  0  0  0  0  0  0  0  0
    8.7866   15.4489    4.3569 C   0  0  1  0  0  0  0  0  0  0  0  0
    9.6170   14.7749    5.2039 O   0  0  0  0  0  0  0  0  0  0  0  0
    8.9642   15.0250    2.9289 C   0  0  1  0  0  0  0  0  0  0  0  0
   10.3196   14.9500    2.6099 O   0  0  0  0  0  0  0  0  0  0  0  0
    8.3642   13.6257    2.7587 C   0  0  1  0  0  0  0  0  0  0  0  0
    8.8463   12.8813    3.8522 O   0  0  0  0  0  0  0  0  0  0  0  0
    6.8499   13.7124    2.7792 C   0  0  1  0  0  0  0  0  0  0  0  0
    6.2657   13.1435    1.7014 O   0  0  0  0  0  0  0  0  0  0  0  0
    6.9343   13.0349    0.6202 O   0  0  0  0  0  0  0  0  0  0  0  0
  2  1  1  1
  2  3  1  0
  3  4  1  0
  4  5  1  1
  4  6  1  0
  6  7  1  1
  6  8  1  0
  8  9  1  6
  8 10  1  0
 10 11  1  6
 12 11  1  6
 12 13  1  0
 13 14  1  0
 14 15  1  6
 14 16  1  0
 16 17  1  1
 16 18  1  0
 18 19  1  1
 18 20  1  0
 20 21  1  1
 20 22  1  0
 22 23  1  6
 23 24  1  0
 10  2  1  0
 22 12  1  0
M  END
>  <docking_score>  (2) 
-4.968

$$$$

     RDKit          3D

 24 25  0  0  0  0  0  0  0  0999 V2000
   14.2634   -3.8356   -5.5921 C   0  0  0  0  0  0  0  0  0  0  0  0
   15.4999   -3.2971   -6.3217 C   0  0  1  0  0  0  0  0  0  0  0  0
   15.0913   -1.9388   -6.8891 C   0  0  0  0  0  0  0  0  0  0  0  0
   15.0433   -0.9204   -5.7731 C   0  0  2  0  0  0  0  0  0  0  0  0
   16.3040   -0.3180   -5.7367 O   0  0  0  0  0  0  0  0  0  0  0  0
   14.8129   -1.6671   -4.4728 C   0  0  2  0  0  0  0  0  0  0  0  0
   14.4277   -0.7914   -3.4615 O   0  0  0  0  0  0  0  0  0  0  0  0
   16.1426   -2.3209   -4.1161 C   0  0  1  0  0  0  0  0  0  0  0  0
   16.0458   -3.1265   -2.9919 O   0  0  0  0  0  0  0  0  0  0  0  0
   16.6125   -3.1077   -5.3145 C   0  0  1  0  0  0  0  0  0  0  0  0
   17.0554   -4.3980   -4.8430 N   0  0  0  0  0  0  0  0  0  0  0  0
   18.1388   -4.9288   -5.6566 C   0  0  1  0  0  0  0  0  0  0  0  0
   19.4076   -4.5753   -4.8718 C   0  0  0  0  0  0  0  0  0  0  0  0
   20.4867   -5.4802   -5.4128 C   0  0  2  0  0  0  0  0  0  0  0  0
   20.1943   -6.0426   -6.6396 O   0  0  0  0  0  0  0  0  0  0  0  0
   20.7829   -6.5379   -4.3782 C   0  0  1  0  0  0  0  0  0  0  0  0
   20.8036   -6.0054   -3.1224 O   0  0  0  0  0  0  0  0  0  0  0  0
   19.8144   -7.6772   -4.4974 C   0  0  1  0  0  0  0  0  0  0  0  0
   19.9464   -8.5421   -3.4116 O   0  0  0  0  0  0  0  0  0  0  0  0
   18.3913   -7.1102   -4.4749 C   0  0  1  0  0  0  0  0  0  0  0  0
   18.3766   -6.1907   -3.4087 O   0  0  0  0  0  0  0  0  0  0  0  0
   18.0929   -6.4244   -5.7947 C   0  0  1  0  0  0  0  0  0  0  0  0
   16.9683   -6.8773   -6.3919 O   0  0  0  0  0  0  0  0  0  0  0  0
   16.7667   -6.6022   -7.6214 O   0  0  0  0  0  0  0  0  0  0  0  0
  2  1  1  1
  2  3  1  0
  3  4  1  0
  4  5  1  1
  4  6  1  0
  6  7  1  1
  6  8  1  0
  8  9  1  1
  8 10  1  0
 10 11  1  1
 12 11  1  1
 12 13  1  0
 13 14  1  0
 14 15  1  6
 14 16  1  0
 16 17  1  1
 16 18  1  0
 18 19  1  1
 18 20  1  0
 20 21  1  1
 20 22  1  0
 22 23  1  1
 23 24  1  0
 10  2  1  0
 22 12  1  0
M  END
>  <docking_score>  (3) 
-4.6929999999999996

$$$$
