
     RDKit          3D

 25 28  0  0  0  0  0  0  0  0999 V2000
   17.0673   -3.7629   -4.8029 C   0  0  2  0  0  0  0  0  0  0  0  0
   17.3043   -3.8895   -6.2111 N   0  0  0  0  0  0  0  0  0  0  0  0
   16.2281   -3.1983   -6.9756 C   0  0  0  0  0  0  0  0  0  0  0  0
   18.2250   -4.4482   -7.1900 C   0  0  0  0  0  0  0  0  0  0  0  0
   19.5941   -4.5446   -7.1106 C   0  0  0  0  0  0  0  0  0  0  0  0
   20.4631   -4.3163   -5.8171 C   0  0  0  0  0  0  0  0  0  0  0  0
   19.9645   -3.6419   -4.8335 C   0  0  0  0  0  0  0  0  0  0  0  0
   20.2309   -4.5976   -3.6763 C   0  0  0  0  0  0  0  0  0  0  0  0
   19.1536   -4.7118   -2.7589 C   0  0  0  0  0  0  0  0  0  0  0  0
   17.9464   -5.5547   -3.0509 C   0  0  0  0  0  0  0  0  0  0  0  0
   17.0635   -5.0720   -4.0432 C   0  0  0  0  0  0  0  0  0  0  0  0
   16.2046   -6.1679   -4.0878 N   0  0  0  0  0  0  0  0  0  0  0  0
   15.0773   -6.4429   -4.9238 C   0  0  1  0  0  0  0  0  0  0  0  0
   14.1244   -7.1927   -4.2242 F   0  0  0  0  0  0  0  0  0  0  0  0
   14.4917   -5.2769   -5.5653 C   0  0  0  0  0  0  0  0  0  0  0  0
   14.6944   -4.0047   -5.4478 C   0  0  0  0  0  0  0  0  0  0  0  0
   15.6248   -3.2560   -4.5906 C   0  0  2  0  0  0  0  0  0  0  0  0
   15.5874   -1.7935   -4.8506 C   0  0  0  0  0  0  0  0  0  0  0  0
   14.5041   -1.1613   -4.5013 C   0  0  0  0  0  0  0  0  0  0  0  0
   13.4669   -0.3840   -4.5428 C   0  0  0  0  0  0  0  0  0  0  0  0
   19.2064   -2.3298   -4.7292 C   0  0  0  0  0  0  0  0  0  0  0  0
   17.8797   -2.6978   -4.1403 C   0  0  2  0  0  0  0  0  0  0  0  0
   17.5110   -2.1663   -2.8428 C   0  0  0  0  0  0  0  0  0  0  0  0
   18.4663   -2.5301   -1.7014 C   0  0  0  0  0  0  0  0  0  0  0  0
   19.1013   -3.7902   -1.6117 C   0  0  0  0  0  0  0  0  0  0  0  0
  1  2  1  6
  2  3  1  0
  2  4  1  0
  4  5  2  3
  5  6  1  0
  6  7  2  3
  7  8  1  0
  8  9  2  3
  9 10  1  0
 10 11  2  3
 11 12  1  0
 12 13  1  0
 13 14  1  1
 13 15  1  0
 15 16  2  0
 16 17  1  0
 17 18  1  6
 18 19  2  0
 19 20  2  0
  7 21  1  0
 21 22  1  0
 22 23  1  1
 23 24  1  0
 24 25  2  3
 17  1  1  0
 11  1  1  0
 22  1  1  0
 25  9  1  0
M  END
>  <docking_score>  (1) 
-6.7629999999999999

$$$$

     RDKit          3D

 25 28  0  0  0  0  0  0  0  0999 V2000
   17.7771   -2.9005   -4.5448 C   0  0  2  0  0  0  0  0  0  0  0  0
   16.4254   -3.0406   -4.0881 N   0  0  0  0  0  0  0  0  0  0  0  0
   16.3528   -2.7943   -2.6202 C   0  0  0  0  0  0  0  0  0  0  0  0
   15.0716   -3.3345   -4.5340 C   0  0  0  0  0  0  0  0  0  0  0  0
   14.4686   -2.9724   -5.7152 C   0  0  0  0  0  0  0  0  0  0  0  0
   15.1962   -2.3830   -6.9815 C   0  0  0  0  0  0  0  0  0  0  0  0
   16.3620   -1.8417   -6.8438 C   0  0  0  0  0  0  0  0  0  0  0  0
   17.1402   -2.5746   -7.9304 C   0  0  0  0  0  0  0  0  0  0  0  0
   18.4467   -2.9703   -7.5411 C   0  0  0  0  0  0  0  0  0  0  0  0
   18.6896   -4.1797   -6.6858 C   0  0  0  0  0  0  0  0  0  0  0  0
   18.3040   -4.0826   -5.3297 C   0  0  0  0  0  0  0  0  0  0  0  0
   18.5672   -5.3993   -4.9586 N   0  0  0  0  0  0  0  0  0  0  0  0
   18.3573   -6.0853   -3.7215 C   0  0  1  0  0  0  0  0  0  0  0  0
   19.3487   -7.0546   -3.5285 F   0  0  0  0  0  0  0  0  0  0  0  0
   18.2034   -5.2225   -2.5614 C   0  0  0  0  0  0  0  0  0  0  0  0
   18.3390   -3.9490   -2.3791 C   0  0  0  0  0  0  0  0  0  0  0  0
   18.7116   -2.8794   -3.3163 C   0  0  2  0  0  0  0  0  0  0  0  0
   18.6548   -1.5314   -2.6938 C   0  0  0  0  0  0  0  0  0  0  0  0
   19.6814   -1.1695   -1.9794 C   0  0  0  0  0  0  0  0  0  0  0  0
   20.3975   -0.7115   -1.0000 C   0  0  0  0  0  0  0  0  0  0  0  0
   16.9549   -0.8456   -5.8623 C   0  0  0  0  0  0  0  0  0  0  0  0
   18.0702   -1.5849   -5.1903 C   0  0  2  0  0  0  0  0  0  0  0  0
   19.4312   -1.1139   -5.3571 C   0  0  0  0  0  0  0  0  0  0  0  0
   19.9238   -1.0649   -6.8072 C   0  0  0  0  0  0  0  0  0  0  0  0
   19.5644   -2.0387   -7.7673 C   0  0  0  0  0  0  0  0  0  0  0  0
  1  2  1  1
  2  3  1  0
  2  4  1  0
  4  5  2  3
  5  6  1  0
  6  7  2  3
  7  8  1  0
  8  9  2  3
  9 10  1  0
 10 11  2  3
 11 12  1  0
 12 13  1  0
 13 14  1  1
 13 15  1  0
 15 16  2  0
 16 17  1  0
 17 18  1  1
 18 19  2  0
 19 20  2  0
  7 21  1  0
 21 22  1  0
 22 23  1  6
 23 24  1  0
 24 25  2  3
 17  1  1  0
 11  1  1  0
 22  1  1  0
 25  9  1  0
M  END
>  <docking_score>  (2) 
-6.6059999999999999

$$$$

     RDKit          3D

 25 28  0  0  0  0  0  0  0  0999 V2000
   17.4034   -3.7694   -4.7238 C   0  0  2  0  0  0  0  0  0  0  0  0
   18.1927   -2.7966   -5.4210 N   0  0  0  0  0  0  0  0  0  0  0  0
   19.5256   -2.6568   -4.7696 C   0  0  0  0  0  0  0  0  0  0  0  0
   18.1779   -1.8814   -6.5524 C   0  0  0  0  0  0  0  0  0  0  0  0
   17.5988   -2.0643   -7.7858 C   0  0  0  0  0  0  0  0  0  0  0  0
   16.5802   -3.2029   -8.1688 C   0  0  0  0  0  0  0  0  0  0  0  0
   16.5251   -4.2702   -7.4417 C   0  0  0  0  0  0  0  0  0  0  0  0
   15.0268   -4.3471   -7.1719 C   0  0  0  0  0  0  0  0  0  0  0  0
   14.6955   -4.6969   -5.8366 C   0  0  0  0  0  0  0  0  0  0  0  0
   14.7486   -3.6989   -4.7165 C   0  0  0  0  0  0  0  0  0  0  0  0
   16.0337   -3.2844   -4.2997 C   0  0  0  0  0  0  0  0  0  0  0  0
   15.6363   -2.3099   -3.3870 N   0  0  0  0  0  0  0  0  0  0  0  0
   16.4021   -1.3948   -2.5986 C   0  0  1  0  0  0  0  0  0  0  0  0
   15.7598   -1.1475   -1.3797 F   0  0  0  0  0  0  0  0  0  0  0  0
   17.7971   -1.7621   -2.4167 C   0  0  0  0  0  0  0  0  0  0  0  0
   18.4823   -2.8180   -2.7149 C   0  0  0  0  0  0  0  0  0  0  0  0
   18.0788   -4.0712   -3.3690 C   0  0  2  0  0  0  0  0  0  0  0  0
   19.2249   -4.9886   -3.5984 C   0  0  0  0  0  0  0  0  0  0  0  0
   20.1464   -5.0202   -2.6792 C   0  0  0  0  0  0  0  0  0  0  0  0
   21.3074   -5.0076   -2.1014 C   0  0  0  0  0  0  0  0  0  0  0  0
   17.5697   -5.2047   -6.8562 C   0  0  0  0  0  0  0  0  0  0  0  0
   17.3785   -5.1149   -5.3738 C   0  0  2  0  0  0  0  0  0  0  0  0
   16.9737   -6.2985   -4.6409 C   0  0  0  0  0  0  0  0  0  0  0  0
   15.6411   -6.9093   -5.0869 C   0  0  0  0  0  0  0  0  0  0  0  0
   14.5409   -6.1212   -5.4965 C   0  0  0  0  0  0  0  0  0  0  0  0
  1  2  1  6
  2  3  1  0
  2  4  1  0
  4  5  2  3
  5  6  1  0
  6  7  2  3
  7  8  1  0
  8  9  2  3
  9 10  1  0
 10 11  2  3
 11 12  1  0
 12 13  1  0
 13 14  1  1
 13 15  1  0
 15 16  2  0
 16 17  1  0
 17 18  1  6
 18 19  2  0
 19 20  2  0
  7 21  1  0
 21 22  1  0
 22 23  1  6
 23 24  1  0
 24 25  2  3
 17  1  1  0
 11  1  1  0
 22  1  1  0
 25  9  1  0
M  END
>  <docking_score>  (3) 
-6.2450000000000001

$$$$
