
     RDKit          3D

 30 29  0  0  0  0  0  0  0  0999 V2000
    3.1409    5.9512    6.1118 C   0  0  0  0  0  0  0  0  0  0  0  0
    3.5039    7.3935    6.4139 C   0  0  0  0  0  0  0  0  0  0  0  0
    4.5526    7.9073    5.4641 C   0  0  0  0  0  0  0  0  0  0  0  0
    3.8849    7.5868    7.8580 C   0  0  0  0  0  0  0  0  0  0  0  0
    4.5683    8.9219    8.0971 C   0  0  0  0  0  0  0  0  0  0  0  0
    4.5191    9.2031    9.5760 C   0  0  0  0  0  0  0  0  0  0  0  0
    3.5577   10.2816    9.8818 C   0  0  1  0  0  0  0  0  0  0  0  0
    2.2586   10.2751    9.1936 C   0  0  0  0  0  0  0  0  0  0  0  0
    3.5753   10.6333   11.3294 C   0  0  0  0  0  3  0  0  0  0  0  0
    2.6110   11.7701   11.5844 C   0  0  0  0  0  0  0  0  0  0  0  0
    2.9075   12.3665   12.9175 C   0  0  0  0  0  0  0  0  0  0  0  0
    4.3445   12.2707   13.3531 C   0  0  0  0  0  3  0  0  0  0  0  0
    5.0239   13.5748   13.0687 C   0  0  0  0  0  2  0  0  0  0  0  0
    6.3693   13.3374   12.4018 C   0  0  0  0  0  3  0  0  0  0  0  0
    6.1963   13.0200   10.9367 C   0  0  0  0  0  0  0  0  0  0  0  0
    5.0818   13.8662   10.3219 C   0  0  0  0  0  2  0  0  0  0  0  0
    5.7008   14.9159    9.4441 C   0  0  0  0  0  3  0  0  0  0  0  0
    5.2358   14.8147    8.0166 C   0  0  2  0  0  0  0  0  0  0  0  0
    4.3170   15.8965    7.7412 N   0  0  0  0  0  1  0  0  0  0  0  0
    4.4859   13.5125    7.8330 C   0  0  0  0  0  3  0  0  0  0  0  0
    3.2748   13.6963    6.9798 C   0  0  0  0  0  0  0  0  0  0  0  0
    2.9153   12.5054    6.1987 C   0  0  0  0  0  0  0  0  0  0  0  0
    3.8703   11.4493    6.1020 C   0  0  0  0  0  0  0  0  0  0  0  0
    4.8997   11.2838    5.1170 C   0  0  2  0  0  0  0  0  0  0  0  0
    6.3284   11.3904    5.4484 C   0  0  0  0  0  0  0  0  0  0  0  0
    4.5670   11.5588    3.8028 O   0  0  0  0  0  0  0  0  0  0  0  0
    5.2661   12.6120    3.2650 C   0  0  2  0  0  0  0  0  0  0  0  0
    5.2426   13.6552    4.1686 F   0  0  0  0  0  0  0  0  0  0  0  0
    4.7708   13.0748    1.9331 C   0  0  0  0  0  0  0  0  0  0  0  0
    3.4254   12.8632    1.8239 F   0  0  0  0  0  0  0  0  0  0  0  0
  1  2  1  0
  2  3  1  0
  2  4  1  0
  4  5  1  0
  5  6  1  0
  6  7  1  0
  7  8  1  1
  7  9  1  0
  9 10  1  0
 10 11  1  0
 11 12  1  0
 12 13  1  0
 13 14  1  0
 14 15  1  0
 15 16  1  0
 16 17  1  0
 17 18  1  0
 18 19  1  1
 18 20  1  0
 20 21  1  0
 21 22  1  0
 22 23  1  0
 23 24  1  0
 24 25  1  1
 24 26  1  0
 26 27  1  0
 27 28  1  1
 27 29  1  0
 29 30  1  0
M  RAD  8   9   2  12   2  13   3  14   2  16   3  17   2  19   2  20   2
M  CHG  1  19   1
M  END
>  <docking_score>  (1) 
-1.728

$$$$

     RDKit          3D

 30 29  0  0  0  0  0  0  0  0999 V2000
   11.7432   -0.7008   -4.5772 C   0  0  0  0  0  0  0  0  0  0  0  0
   13.2157   -0.7661   -4.2159 C   0  0  0  0  0  0  0  0  0  0  0  0
   13.8091    0.6102   -4.0755 C   0  0  0  0  0  0  0  0  0  0  0  0
   13.9906   -1.6370   -5.1692 C   0  0  0  0  0  0  0  0  0  0  0  0
   14.6283   -0.8346   -6.2900 C   0  0  0  0  0  0  0  0  0  0  0  0
   15.9022   -0.2342   -5.7558 C   0  0  0  0  0  0  0  0  0  0  0  0
   16.9359   -1.2697   -5.5543 C   0  0  1  0  0  0  0  0  0  0  0  0
   16.5691   -2.4891   -4.8197 C   0  0  0  0  0  0  0  0  0  0  0  0
   17.8013   -1.4173   -6.7579 C   0  0  0  0  0  3  0  0  0  0  0  0
   17.5761   -2.7784   -7.3776 C   0  0  0  0  0  0  0  0  0  0  0  0
   18.7461   -3.1193   -8.2353 C   0  0  0  0  0  0  0  0  0  0  0  0
   19.8260   -3.9146   -7.5534 C   0  0  0  0  0  3  0  0  0  0  0  0
   21.0912   -3.1132   -7.5555 C   0  0  0  0  0  2  0  0  0  0  0  0
   21.1089   -2.1470   -6.3818 C   0  0  0  0  0  3  0  0  0  0  0  0
   21.3794   -2.8752   -5.0881 C   0  0  0  0  0  0  0  0  0  0  0  0
   20.7422   -2.1451   -3.9062 C   0  0  0  0  0  2  0  0  0  0  0  0
   21.2605   -2.7460   -2.6311 C   0  0  0  0  0  3  0  0  0  0  0  0
   20.3905   -3.8679   -2.1324 C   0  0  2  0  0  0  0  0  0  0  0  0
   21.0838   -5.1227   -2.3201 N   0  0  0  0  0  1  0  0  0  0  0  0
   19.1217   -3.9122   -2.9570 C   0  0  0  0  0  3  0  0  0  0  0  0
   17.9962   -4.5273   -2.1931 C   0  0  0  0  0  0  0  0  0  0  0  0
   17.3441   -5.6409   -2.8948 C   0  0  0  0  0  0  0  0  0  0  0  0
   17.6173   -5.8141   -4.2848 C   0  0  0  0  0  0  0  0  0  0  0  0
   16.7713   -6.4090   -5.2785 C   0  0  2  0  0  0  0  0  0  0  0  0
   16.7315   -7.8607   -5.5091 C   0  0  0  0  0  0  0  0  0  0  0  0
   16.4118   -5.6206   -6.3567 O   0  0  0  0  0  0  0  0  0  0  0  0
   15.0638   -5.3660   -6.4295 C   0  0  2  0  0  0  0  0  0  0  0  0
   14.4126   -6.2255   -5.5677 F   0  0  0  0  0  0  0  0  0  0  0  0
   14.4813   -5.4751   -7.8014 C   0  0  0  0  0  0  0  0  0  0  0  0
   13.2138   -5.9818   -7.7433 F   0  0  0  0  0  0  0  0  0  0  0  0
  1  2  1  0
  2  3  1  0
  2  4  1  0
  4  5  1  0
  5  6  1  0
  6  7  1  0
  7  8  1  6
  7  9  1  0
  9 10  1  0
 10 11  1  0
 11 12  1  0
 12 13  1  0
 13 14  1  0
 14 15  1  0
 15 16  1  0
 16 17  1  0
 17 18  1  0
 18 19  1  6
 18 20  1  0
 20 21  1  0
 21 22  1  0
 22 23  1  0
 23 24  1  0
 24 25  1  6
 24 26  1  0
 26 27  1  0
 27 28  1  1
 27 29  1  0
 29 30  1  0
M  RAD  8   9   2  12   2  13   3  14   2  16   3  17   2  19   2  20   2
M  CHG  1  19   1
M  END
>  <docking_score>  (2) 
-1.5069999999999999

$$$$

     RDKit          3D

 30 29  0  0  0  0  0  0  0  0999 V2000
   13.0058   10.7336   12.9659 C   0  0  0  0  0  0  0  0  0  0  0  0
   12.0638   11.5062   12.0609 C   0  0  0  0  0  0  0  0  0  0  0  0
   12.2236   11.0955   10.6216 C   0  0  0  0  0  0  0  0  0  0  0  0
   12.1899   12.9940   12.2567 C   0  0  0  0  0  0  0  0  0  0  0  0
   12.3454   13.3687   13.7204 C   0  0  0  0  0  0  0  0  0  0  0  0
   10.9807   13.7238   14.2496 C   0  0  0  0  0  0  0  0  0  0  0  0
   10.7120   15.1687   14.1039 C   0  0  1  0  0  0  0  0  0  0  0  0
   11.8525   16.0747   13.9043 C   0  0  0  0  0  0  0  0  0  0  0  0
    9.4799   15.4160   13.3037 C   0  0  0  0  0  3  0  0  0  0  0  0
    8.7073   14.1243   13.1547 C   0  0  0  0  0  0  0  0  0  0  0  0
    7.3690   14.4254   12.5724 C   0  0  0  0  0  0  0  0  0  0  0  0
    6.8491   13.3972   11.6047 C   0  0  0  0  0  3  0  0  0  0  0  0
    6.9854   12.0396   12.2223 C   0  0  0  0  0  2  0  0  0  0  0  0
    5.6811   11.2681   12.1001 C   0  0  0  0  0  3  0  0  0  0  0  0
    5.9401    9.8231   11.7509 C   0  0  0  0  0  0  0  0  0  0  0  0
    4.6329    9.0336   11.6855 C   0  0  0  0  0  2  0  0  0  0  0  0
    3.7420    9.6596   10.6512 C   0  0  0  0  0  3  0  0  0  0  0  0
    4.4427    9.8519    9.3335 C   0  0  2  0  0  0  0  0  0  0  0  0
    4.1764   11.1872    8.8472 N   0  0  0  0  0  1  0  0  0  0  0  0
    3.8786    8.8717    8.3271 C   0  0  0  0  0  3  0  0  0  0  0  0
    4.6085    8.9447    7.0269 C   0  0  0  0  0  0  0  0  0  0  0  0
    4.1858    7.9290    6.0535 C   0  0  0  0  0  0  0  0  0  0  0  0
    3.5598    8.3693    4.8489 C   0  0  0  0  0  0  0  0  0  0  0  0
    3.9476    8.0752    3.4997 C   0  0  2  0  0  0  0  0  0  0  0  0
    4.0097    6.7001    2.9823 C   0  0  0  0  0  0  0  0  0  0  0  0
    4.7625    8.9930    2.8619 O   0  0  0  0  0  0  0  0  0  0  0  0
    4.4382   10.3004    3.1317 C   0  0  2  0  0  0  0  0  0  0  0  0
    4.8638   10.5982    4.4106 F   0  0  0  0  0  0  0  0  0  0  0  0
    2.9873   10.6268    2.9839 C   0  0  0  0  0  0  0  0  0  0  0  0
    2.6153   11.5735    3.8961 F   0  0  0  0  0  0  0  0  0  0  0  0
  1  2  1  0
  2  3  1  0
  2  4  1  0
  4  5  1  0
  5  6  1  0
  6  7  1  0
  7  8  1  6
  7  9  1  0
  9 10  1  0
 10 11  1  0
 11 12  1  0
 12 13  1  0
 13 14  1  0
 14 15  1  0
 15 16  1  0
 16 17  1  0
 17 18  1  0
 18 19  1  6
 18 20  1  0
 20 21  1  0
 21 22  1  0
 22 23  1  0
 23 24  1  0
 24 25  1  1
 24 26  1  0
 26 27  1  0
 27 28  1  1
 27 29  1  0
 29 30  1  0
M  RAD  8   9   2  12   2  13   3  14   2  16   3  17   2  19   2  20   2
M  CHG  1  19   1
M  END
>  <docking_score>  (3) 
-0.754

$$$$
