
     RDKit          3D

 29 29  0  0  0  0  0  0  0  0999 V2000
    7.4164   14.2915    2.0123 C   0  0  0  0  0  0  0  0  0  0  0  0
    8.3836   13.4784    2.8364 C   0  0  0  0  0  0  0  0  0  0  0  0
    9.3911   14.4537    3.4530 C   0  0  0  0  0  0  0  0  0  0  0  0
    7.6530   12.8292    4.0154 C   0  0  0  0  0  0  0  0  0  0  0  0
    6.5961   13.7266    4.5679 C   0  0  0  0  0  0  0  0  0  0  0  0
    6.1378   13.3751    5.9206 C   0  0  0  0  0  0  0  0  0  0  0  0
    6.5649   14.2383    7.0236 C   0  0  1  0  0  0  0  0  0  0  0  0
    7.0435   15.5878    6.4389 C   0  0  0  0  0  0  0  0  0  0  0  0
    5.5523   14.5391    8.1161 C   0  0  0  0  0  3  0  0  0  0  0  0
    6.1756   14.5035    9.4808 C   0  0  0  0  0  0  0  0  0  0  0  0
    5.3514   13.6650   10.4119 C   0  0  0  0  0  0  0  0  0  0  0  0
    3.9102   13.7528   10.0563 C   0  0  2  0  0  0  0  0  0  0  0  0
    3.2599   15.0551   10.2715 C   0  0  0  0  0  0  0  0  0  0  0  0
    3.0862   12.5969   10.5557 C   0  0  0  0  0  0  0  0  0  0  0  0
    3.1620   11.5026    9.5152 C   0  0  1  0  0  0  0  0  0  0  0  0
    3.1023   12.0764    8.1235 C   0  0  0  0  0  0  0  0  0  0  0  0
    4.3305   10.5856    9.7273 C   0  0  0  0  0  0  0  0  0  0  0  0
    3.9080    9.1774   10.0812 C   0  0  0  0  0  0  0  0  0  0  0  0
    4.9334    8.6147   11.0303 C   0  0  1  0  0  0  0  0  0  0  0  0
    5.7920    9.6520   11.4077 O   0  0  0  0  0  0  0  0  0  0  0  0
    4.2997    8.0904   12.3004 C   0  0  0  0  0  0  0  0  0  0  0  0
    2.9991    8.7983   12.6060 C   0  0  0  0  0  0  0  0  0  0  0  0
    3.2729    9.8759   13.5951 C   0  0  2  0  0  0  0  0  0  0  0  0
    3.2981    9.4395   14.9089 O   0  0  0  0  0  0  0  0  0  0  0  0
    2.5271   11.0259   13.4071 O   0  0  0  0  0  0  0  0  0  0  0  0
    2.4185   11.7927   14.5564 C   0  0  0  0  0  3  0  0  0  0  0  0
    3.7012   11.7585   15.3583 C   0  0  0  0  0  0  0  0  0  0  0  0
    3.9300   10.3033   15.7661 C   0  0  1  0  0  0  0  0  0  0  0  0
    3.3704   10.0558   17.1637 C   0  0  0  0  0  2  0  0  0  0  0  0
  1  2  1  0
  2  3  1  0
  2  4  1  0
  4  5  1  0
  5  6  1  0
  6  7  1  0
  7  8  1  6
  7  9  1  0
  9 10  1  0
 10 11  1  0
 11 12  1  0
 12 13  1  1
 12 14  1  0
 14 15  1  0
 15 16  1  6
 15 17  1  0
 17 18  1  0
 18 19  1  0
 19 20  1  1
 19 21  1  0
 21 22  1  0
 23 22  1  6
 23 24  1  0
 23 25  1  0
 25 26  1  0
 26 27  1  0
 27 28  1  0
 28 29  1  1
 28 24  1  0
M  RAD  3   9   2  26   2  29   3
M  END
>  <docking_score>  (1) 
-2.6339999999999999

$$$$

     RDKit          3D

 29 29  0  0  0  0  0  0  0  0999 V2000
   20.3670   -1.7457   -3.7252 C   0  0  0  0  0  0  0  0  0  0  0  0
   19.6703   -0.8944   -4.7574 C   0  0  0  0  0  0  0  0  0  0  0  0
   20.0833   -1.4183   -6.1362 C   0  0  0  0  0  0  0  0  0  0  0  0
   18.1547   -1.0961   -4.6688 C   0  0  0  0  0  0  0  0  0  0  0  0
   17.5033   -0.9573   -6.0045 C   0  0  0  0  0  0  0  0  0  0  0  0
   16.1884   -0.2987   -5.9809 C   0  0  0  0  0  0  0  0  0  0  0  0
   15.0030   -1.1556   -6.0473 C   0  0  1  0  0  0  0  0  0  0  0  0
   15.2409   -2.2474   -7.1166 C   0  0  0  0  0  0  0  0  0  0  0  0
   14.5607   -1.8474   -4.7685 C   0  0  0  0  0  3  0  0  0  0  0  0
   14.9155   -3.3055   -4.7705 C   0  0  0  0  0  0  0  0  0  0  0  0
   16.0058   -3.5812   -3.7783 C   0  0  0  0  0  0  0  0  0  0  0  0
   16.3219   -5.0338   -3.7400 C   0  0  2  0  0  0  0  0  0  0  0  0
   17.3894   -5.4484   -2.8160 C   0  0  0  0  0  0  0  0  0  0  0  0
   16.4440   -5.6686   -5.0988 C   0  0  0  0  0  0  0  0  0  0  0  0
   17.8479   -5.4091   -5.5964 C   0  0  1  0  0  0  0  0  0  0  0  0
   17.8581   -4.3222   -6.6396 C   0  0  0  0  0  0  0  0  0  0  0  0
   18.8196   -5.1658   -4.4793 C   0  0  0  0  0  0  0  0  0  0  0  0
   20.2571   -5.1646   -4.9487 C   0  0  0  0  0  0  0  0  0  0  0  0
   21.0394   -6.0724   -4.0363 C   0  0  1  0  0  0  0  0  0  0  0  0
   20.4944   -5.9730   -2.7523 O   0  0  0  0  0  0  0  0  0  0  0  0
   20.9222   -7.5238   -4.4477 C   0  0  0  0  0  0  0  0  0  0  0  0
   19.6368   -8.1419   -3.9459 C   0  0  0  0  0  0  0  0  0  0  0  0
   18.9370   -8.7702   -5.0991 C   0  0  2  0  0  0  0  0  0  0  0  0
   19.1696   -8.1387   -6.3092 O   0  0  0  0  0  0  0  0  0  0  0  0
   17.6029   -9.0557   -4.8702 O   0  0  0  0  0  0  0  0  0  0  0  0
   16.8665   -9.1673   -6.0390 C   0  0  0  0  0  3  0  0  0  0  0  0
   17.6783   -9.8230   -7.1347 C   0  0  0  0  0  0  0  0  0  0  0  0
   18.8775   -8.9137   -7.4021 C   0  0  1  0  0  0  0  0  0  0  0  0
   18.5743   -7.9735   -8.5648 C   0  0  0  0  0  2  0  0  0  0  0  0
  1  2  1  0
  2  3  1  0
  2  4  1  0
  4  5  1  0
  5  6  1  0
  6  7  1  0
  7  8  1  6
  7  9  1  0
  9 10  1  0
 10 11  1  0
 11 12  1  0
 12 13  1  6
 12 14  1  0
 14 15  1  0
 15 16  1  6
 15 17  1  0
 17 18  1  0
 18 19  1  0
 19 20  1  1
 19 21  1  0
 21 22  1  0
 23 22  1  1
 23 24  1  0
 23 25  1  0
 25 26  1  0
 26 27  1  0
 27 28  1  0
 28 29  1  6
 28 24  1  0
M  RAD  3   9   2  26   2  29   3
M  END
>  <docking_score>  (2) 
-2.4620000000000002

$$$$

     RDKit          3D

 29 29  0  0  0  0  0  0  0  0999 V2000
    5.3243   13.3028    1.2753 C   0  0  0  0  0  0  0  0  0  0  0  0
    6.6887   12.6650    1.1920 C   0  0  0  0  0  0  0  0  0  0  0  0
    7.7255   13.7790    1.3666 C   0  0  0  0  0  0  0  0  0  0  0  0
    6.8957   11.7108    2.3719 C   0  0  0  0  0  0  0  0  0  0  0  0
    6.0314   12.0768    3.5323 C   0  0  0  0  0  0  0  0  0  0  0  0
    6.6448   11.8513    4.8500 C   0  0  0  0  0  0  0  0  0  0  0  0
    6.4689   12.8932    5.8636 C   0  0  1  0  0  0  0  0  0  0  0  0
    7.3103   14.1257    5.4574 C   0  0  0  0  0  0  0  0  0  0  0  0
    5.0540   13.3703    6.1461 C   0  0  0  0  0  3  0  0  0  0  0  0
    4.6137   13.0207    7.5376 C   0  0  0  0  0  0  0  0  0  0  0  0
    3.1728   12.6049    7.5427 C   0  0  0  0  0  0  0  0  0  0  0  0
    3.0568   11.1244    7.6196 C   0  0  2  0  0  0  0  0  0  0  0  0
    2.2688   10.5857    8.7395 C   0  0  0  0  0  0  0  0  0  0  0  0
    4.3591   10.3982    7.4169 C   0  0  0  0  0  0  0  0  0  0  0  0
    4.6391    9.6088    8.6755 C   0  0  1  0  0  0  0  0  0  0  0  0
    4.1655   10.3539    9.8962 C   0  0  0  0  0  0  0  0  0  0  0  0
    4.1195    8.2031    8.6019 C   0  0  0  0  0  0  0  0  0  0  0  0
    3.8242    7.7656    7.1849 C   0  0  0  0  0  0  0  0  0  0  0  0
    3.5940    6.2772    7.2019 C   0  0  1  0  0  0  0  0  0  0  0  0
    2.2576    6.0478    7.5442 O   0  0  0  0  0  0  0  0  0  0  0  0
    3.8065    5.6572    5.8380 C   0  0  0  0  0  0  0  0  0  0  0  0
    5.0020    6.2585    5.1342 C   0  0  0  0  0  0  0  0  0  0  0  0
    4.5123    7.0610    3.9806 C   0  0  2  0  0  0  0  0  0  0  0  0
    4.0145    8.3043    4.3322 O   0  0  0  0  0  0  0  0  0  0  0  0
    3.6974    6.3646    3.1061 O   0  0  0  0  0  0  0  0  0  0  0  0
    2.8805    7.1934    2.3535 C   0  0  0  0  0  3  0  0  0  0  0  0
    3.5976    8.4719    1.9784 C   0  0  0  0  0  0  0  0  0  0  0  0
    3.9416    9.1866    3.2850 C   0  0  1  0  0  0  0  0  0  0  0  0
    2.8633   10.2121    3.6219 C   0  0  0  0  0  2  0  0  0  0  0  0
  1  2  1  0
  2  3  1  0
  2  4  1  0
  4  5  1  0
  5  6  1  0
  6  7  1  0
  7  8  1  6
  7  9  1  0
  9 10  1  0
 10 11  1  0
 11 12  1  0
 12 13  1  1
 12 14  1  0
 14 15  1  0
 15 16  1  1
 15 17  1  0
 17 18  1  0
 18 19  1  0
 19 20  1  6
 19 21  1  0
 21 22  1  0
 23 22  1  1
 23 24  1  0
 23 25  1  0
 25 26  1  0
 26 27  1  0
 27 28  1  0
 28 29  1  1
 28 24  1  0
M  RAD  3   9   2  26   2  29   3
M  END
>  <docking_score>  (3) 
-0.60199999999999998

$$$$
