
     RDKit          3D

 12 11  0  0  0  0  0  0  0  0999 V2000
   18.1558   -6.0407   -3.0907 C   0  0  0  0  0  0  0  0  0  0  0  0
   18.9992   -5.0310   -3.4849 O   0  0  0  0  0  0  0  0  0  0  0  0
   19.4065   -4.3287   -2.3504 C   0  0  0  0  0  0  0  0  0  0  0  0
   18.1925   -3.5720   -1.8411 C   0  0  0  0  0  3  0  0  0  0  0  0
   17.9758   -2.2933   -2.6136 C   0  0  2  0  0  0  0  0  0  0  0  0
   18.5578   -1.2556   -1.8924 O   0  0  0  0  0  0  0  0  0  0  0  0
   16.5150   -2.0913   -2.8693 C   0  0  0  0  0  3  0  0  0  0  0  0
   15.8786   -3.1692   -3.6836 C   0  0  0  0  0  3  0  0  0  0  0  0
   14.8425   -2.5712   -4.5969 C   0  0  0  0  0  0  0  0  0  0  0  0
   15.4314   -1.5968   -5.5498 C   0  0  0  0  0  0  0  0  0  0  0  0
   14.9494   -0.3702   -5.7118 C   0  0  0  0  0  0  0  0  0  0  0  0
   13.7719    0.0866   -4.9258 C   0  0  0  0  0  0  0  0  0  0  0  0
  1  2  1  0
  2  3  1  0
  3  4  1  0
  4  5  1  0
  5  6  1  1
  5  7  1  0
  7  8  1  0
  8  9  1  0
  9 10  1  0
 10 11  2  3
 11 12  1  0
M  RAD  3   4   2   7   2   8   2
M  END
>  <docking_score>  (1) 
-3.3500000000000001

$$$$

     RDKit          3D

 12 11  0  0  0  0  0  0  0  0999 V2000
   19.4498   -1.2093   -1.7887 C   0  0  0  0  0  0  0  0  0  0  0  0
   20.2669   -2.0489   -1.0719 O   0  0  0  0  0  0  0  0  0  0  0  0
   19.7337   -3.3368   -1.1281 C   0  0  0  0  0  0  0  0  0  0  0  0
   18.4317   -3.2412   -1.9035 C   0  0  0  0  0  3  0  0  0  0  0  0
   17.7816   -4.5948   -2.0588 C   0  0  2  0  0  0  0  0  0  0  0  0
   18.6743   -5.4216   -2.7335 O   0  0  0  0  0  0  0  0  0  0  0  0
   16.4637   -4.4527   -2.7539 C   0  0  0  0  0  3  0  0  0  0  0  0
   16.1288   -3.0543   -3.1569 C   0  0  0  0  0  3  0  0  0  0  0  0
   15.2340   -3.0748   -4.3668 C   0  0  0  0  0  0  0  0  0  0  0  0
   14.7271   -1.7226   -4.7114 C   0  0  0  0  0  0  0  0  0  0  0  0
   14.9570   -1.1476   -5.8861 C   0  0  0  0  0  0  0  0  0  0  0  0
   15.7505   -1.8532   -6.9279 C   0  0  0  0  0  0  0  0  0  0  0  0
  1  2  1  0
  2  3  1  0
  3  4  1  0
  4  5  1  0
  5  6  1  6
  5  7  1  0
  7  8  1  0
  8  9  1  0
  9 10  1  0
 10 11  2  3
 11 12  1  0
M  RAD  3   4   2   7   2   8   2
M  END
>  <docking_score>  (2) 
-3.198

$$$$

     RDKit          3D

 12 11  0  0  0  0  0  0  0  0999 V2000
   13.7844   -0.5819   -4.6335 C   0  0  0  0  0  0  0  0  0  0  0  0
   15.0706   -0.9840   -4.8985 O   0  0  0  0  0  0  0  0  0  0  0  0
   15.3573   -2.0952   -4.1051 C   0  0  0  0  0  0  0  0  0  0  0  0
   14.9266   -3.3208   -4.8914 C   0  0  0  0  0  3  0  0  0  0  0  0
   15.9577   -4.4202   -4.8075 C   0  0  2  0  0  0  0  0  0  0  0  0
   15.5745   -5.4318   -5.6823 O   0  0  0  0  0  0  0  0  0  0  0  0
   16.0981   -4.8829   -3.3910 C   0  0  0  0  0  3  0  0  0  0  0  0
   17.5101   -4.9964   -2.9184 C   0  0  0  0  0  3  0  0  0  0  0  0
   17.7550   -4.0104   -1.8080 C   0  0  0  0  0  0  0  0  0  0  0  0
   19.1933   -3.6700   -1.6685 C   0  0  0  0  0  0  0  0  0  0  0  0
   19.6561   -2.4342   -1.8154 C   0  0  0  0  0  0  0  0  0  0  0  0
   18.7289   -1.3152   -2.1333 C   0  0  0  0  0  0  0  0  0  0  0  0
  1  2  1  0
  2  3  1  0
  3  4  1  0
  4  5  1  0
  5  6  1  6
  5  7  1  0
  7  8  1  0
  8  9  1  0
  9 10  1  0
 10 11  2  3
 11 12  1  0
M  RAD  3   4   2   7   2   8   2
M  END
>  <docking_score>  (3) 
-3.1539999999999999

$$$$
