
     RDKit          3D

 10 10  0  0  0  0  0  0  0  0999 V2000
   13.7110   -0.0310   -4.7946 C   0  0  0  0  0  0  0  0  0  0  0  0
   14.4975   -1.2997   -4.8784 C   0  0  1  0  0  0  0  0  0  0  0  0
   15.3292   -1.3877   -6.1558 C   0  0  0  0  0  0  0  0  0  0  0  0
   15.7702   -2.8514   -6.2530 C   0  0  2  0  0  0  0  0  0  0  0  0
   14.6160   -3.6446   -6.1870 O   0  0  0  0  0  0  0  0  0  0  0  0
   16.5764   -3.1314   -4.9936 C   0  0  2  0  0  0  0  0  0  0  0  0
   16.9251   -4.4705   -4.9880 O   0  0  0  0  0  0  0  0  0  0  0  0
   15.6513   -2.8937   -3.8161 C   0  0  1  0  0  0  0  0  0  0  0  0
   16.2881   -3.1734   -2.6057 O   0  0  0  0  0  0  0  0  0  0  0  0
   15.2666   -1.5520   -3.7578 O   0  0  0  0  0  0  0  0  0  0  0  0
  2  1  1  1
  2  3  1  0
  3  4  1  0
  4  5  1  1
  4  6  1  0
  6  7  1  6
  6  8  1  0
  8  9  1  1
  8 10  1  0
 10  2  1  0
M  END
>  <docking_score>  (1) 
-3.5840000000000001

$$$$

     RDKit          3D

 10 10  0  0  0  0  0  0  0  0999 V2000
   14.5283   -2.3176   -4.9911 C   0  0  0  0  0  0  0  0  0  0  0  0
   15.7047   -2.6700   -4.1385 C   0  0  1  0  0  0  0  0  0  0  0  0
   15.8277   -1.7688   -2.9121 C   0  0  0  0  0  0  0  0  0  0  0  0
   17.2363   -2.0184   -2.3646 C   0  0  2  0  0  0  0  0  0  0  0  0
   18.1412   -1.7973   -3.4125 O   0  0  0  0  0  0  0  0  0  0  0  0
   17.2987   -3.5004   -2.0267 C   0  0  2  0  0  0  0  0  0  0  0  0
   18.5841   -3.7987   -1.6097 O   0  0  0  0  0  0  0  0  0  0  0  0
   17.0479   -4.2574   -3.3162 C   0  0  1  0  0  0  0  0  0  0  0  0
   17.1336   -5.6370   -3.1199 O   0  0  0  0  0  0  0  0  0  0  0  0
   15.7576   -4.0064   -3.7891 O   0  0  0  0  0  0  0  0  0  0  0  0
  2  1  1  1
  2  3  1  0
  3  4  1  0
  4  5  1  6
  4  6  1  0
  6  7  1  6
  6  8  1  0
  8  9  1  1
  8 10  1  0
 10  2  1  0
M  END
>  <docking_score>  (2) 
-3.5190000000000001

$$$$

     RDKit          3D

 10 10  0  0  0  0  0  0  0  0999 V2000
   14.4153   -0.9404   -4.8166 C   0  0  0  0  0  0  0  0  0  0  0  0
   15.4004   -1.8329   -4.1323 C   0  0  1  0  0  0  0  0  0  0  0  0
   15.6452   -1.4275   -2.6807 C   0  0  0  0  0  0  0  0  0  0  0  0
   16.9033   -2.1895   -2.2532 C   0  0  2  0  0  0  0  0  0  0  0  0
   17.9129   -1.8892   -3.1787 O   0  0  0  0  0  0  0  0  0  0  0  0
   16.5750   -3.6661   -2.4148 C   0  0  2  0  0  0  0  0  0  0  0  0
   17.7122   -4.3997   -2.1258 O   0  0  0  0  0  0  0  0  0  0  0  0
   16.2469   -3.8870   -3.8785 C   0  0  1  0  0  0  0  0  0  0  0  0
   15.9770   -5.2313   -4.1410 O   0  0  0  0  0  0  0  0  0  0  0  0
   15.0976   -3.1777   -4.2358 O   0  0  0  0  0  0  0  0  0  0  0  0
  2  1  1  1
  2  3  1  0
  3  4  1  0
  4  5  1  6
  4  6  1  0
  6  7  1  6
  6  8  1  0
  8  9  1  1
  8 10  1  0
 10  2  1  0
M  END
>  <docking_score>  (3) 
-3.4670000000000001

$$$$
