
     RDKit          3D

 21 21  0  0  0  0  0  0  0  0999 V2000
   15.7925   -5.9674   -3.9550 C   0  0  0  0  0  0  0  0  0  0  0  0
   15.3519   -6.7164   -5.0362 O   0  0  0  0  0  0  0  0  0  0  0  0
   14.3014   -6.1363   -5.6874 C   0  0  0  0  0  3  0  0  0  0  0  0
   14.4355   -4.7639   -5.9162 O   0  0  0  0  0  0  0  0  0  0  0  0
   14.4842   -4.6216   -7.2934 C   0  0  2  0  0  0  0  0  0  0  0  0
   13.3677   -5.4298   -7.9388 C   0  0  0  0  0  0  0  0  0  0  0  0
   15.7734   -4.9137   -7.9492 C   0  0  0  0  0  3  0  0  0  0  0  0
   16.7488   -3.7519   -7.7309 C   0  0  1  0  0  0  0  0  0  0  0  0
   15.9475   -2.5336   -7.3392 C   0  0  0  0  0  3  0  0  0  0  0  0
   16.7656   -1.5231   -6.6269 C   0  0  0  0  0  0  0  0  0  0  0  0
   17.6661   -2.1404   -5.5787 C   0  0  1  0  0  0  0  0  0  0  0  0
   19.0982   -1.9198   -6.0054 C   0  0  0  0  0  0  0  0  0  0  0  0
   17.4881   -1.5984   -4.3574 O   0  0  0  0  0  0  0  0  0  0  0  0
   16.4813   -1.8974   -3.6252 O   0  0  0  0  0  0  0  0  0  0  0  0
   16.8327   -1.8278   -2.2395 C   0  0  0  0  0  0  0  0  0  0  0  0
   18.2754   -2.1781   -2.1409 C   0  0  0  0  0  0  0  0  0  0  0  0
   18.6870   -3.4954   -1.6668 C   0  0  1  0  0  0  0  0  0  0  0  0
   18.7544   -4.5368   -2.5524 O   0  0  0  0  0  0  0  0  0  0  0  0
   20.1778   -3.3602   -1.1249 C   0  0  0  0  0  2  0  0  0  0  0  0
   17.7865   -4.1049   -6.7109 C   0  0  0  0  0  0  0  0  0  0  0  0
   17.3940   -3.5265   -5.4892 O   0  0  0  0  0  0  0  0  0  0  0  0
  1  2  1  0
  2  3  1  0
  3  4  1  0
  4  5  1  0
  5  6  1  6
  5  7  1  0
  8  7  1  1
  8  9  1  0
  9 10  1  0
 10 11  1  0
 11 12  1  6
 11 13  1  0
 13 14  1  0
 14 15  1  0
 15 16  1  0
 16 17  1  0
 17 18  1  0
 17 19  1  6
  8 20  1  0
 20 21  1  0
 21 11  1  0
M  RAD  4   3   2   7   2   9   2  19   3
M  END
>  <docking_score>  (1) 
-3.7450000000000001

$$$$

     RDKit          3D

 21 21  0  0  0  0  0  0  0  0999 V2000
   13.9006   -5.6037   -6.3472 C   0  0  0  0  0  0  0  0  0  0  0  0
   14.4347   -4.7554   -5.3884 O   0  0  0  0  0  0  0  0  0  0  0  0
   14.6125   -3.4827   -5.8497 C   0  0  0  0  0  3  0  0  0  0  0  0
   14.0574   -2.4822   -5.0469 O   0  0  0  0  0  0  0  0  0  0  0  0
   14.9418   -1.4182   -5.1175 C   0  0  2  0  0  0  0  0  0  0  0  0
   14.1812   -0.1277   -5.3870 C   0  0  0  0  0  0  0  0  0  0  0  0
   16.0729   -1.5519   -6.0555 C   0  0  0  0  0  3  0  0  0  0  0  0
   17.3998   -1.4062   -5.3023 C   0  0  1  0  0  0  0  0  0  0  0  0
   17.1591   -1.7612   -3.8545 C   0  0  0  0  0  3  0  0  0  0  0  0
   18.4061   -2.1473   -3.1517 C   0  0  0  0  0  0  0  0  0  0  0  0
   19.2683   -3.0823   -3.9720 C   0  0  1  0  0  0  0  0  0  0  0  0
   20.5533   -2.3613   -4.3041 C   0  0  0  0  0  0  0  0  0  0  0  0
   19.5662   -4.2221   -3.3170 O   0  0  0  0  0  0  0  0  0  0  0  0
   18.8693   -4.6339   -2.3250 O   0  0  0  0  0  0  0  0  0  0  0  0
   17.9878   -5.6842   -2.7351 C   0  0  0  0  0  0  0  0  0  0  0  0
   18.7977   -6.6402   -3.5376 C   0  0  0  0  0  0  0  0  0  0  0  0
   18.1807   -7.4173   -4.6076 C   0  0  1  0  0  0  0  0  0  0  0  0
   17.2893   -6.8101   -5.4502 O   0  0  0  0  0  0  0  0  0  0  0  0
   19.3480   -7.9028   -5.5751 C   0  0  0  0  0  2  0  0  0  0  0  0
   18.4684   -2.2488   -5.9268 C   0  0  0  0  0  0  0  0  0  0  0  0
   18.5821   -3.4247   -5.1617 O   0  0  0  0  0  0  0  0  0  0  0  0
  1  2  1  0
  2  3  1  0
  3  4  1  0
  4  5  1  0
  5  6  1  6
  5  7  1  0
  8  7  1  6
  8  9  1  0
  9 10  1  0
 10 11  1  0
 11 12  1  6
 11 13  1  0
 13 14  1  0
 14 15  1  0
 15 16  1  0
 16 17  1  0
 17 18  1  0
 17 19  1  6
  8 20  1  0
 20 21  1  0
 21 11  1  0
M  RAD  4   3   2   7   2   9   2  19   3
M  END
>  <docking_score>  (2) 
-3.5830000000000002

$$$$

     RDKit          3D

 21 21  0  0  0  0  0  0  0  0999 V2000
   14.6310   -1.3677   -4.4296 C   0  0  0  0  0  0  0  0  0  0  0  0
   15.0826   -2.6755   -4.5288 O   0  0  0  0  0  0  0  0  0  0  0  0
   14.3405   -3.4260   -5.3950 C   0  0  0  0  0  3  0  0  0  0  0  0
   14.7376   -3.3464   -6.7328 O   0  0  0  0  0  0  0  0  0  0  0  0
   14.9021   -4.6578   -7.1484 C   0  0  2  0  0  0  0  0  0  0  0  0
   14.0234   -4.9324   -8.3603 C   0  0  0  0  0  0  0  0  0  0  0  0
   14.7140   -5.7090   -6.1301 C   0  0  0  0  0  3  0  0  0  0  0  0
   15.9966   -6.5355   -5.9855 C   0  0  1  0  0  0  0  0  0  0  0  0
   17.1249   -5.7681   -6.6320 C   0  0  0  0  0  3  0  0  0  0  0  0
   18.4554   -6.1903   -6.1327 C   0  0  0  0  0  0  0  0  0  0  0  0
   18.4854   -6.3524   -4.6282 C   0  0  1  0  0  0  0  0  0  0  0  0
   18.7268   -7.8113   -4.3207 C   0  0  0  0  0  0  0  0  0  0  0  0
   19.4557   -5.6193   -4.0467 O   0  0  0  0  0  0  0  0  0  0  0  0
   19.7763   -4.4575   -4.4787 O   0  0  0  0  0  0  0  0  0  0  0  0
   19.7391   -3.5007   -3.4150 C   0  0  0  0  0  0  0  0  0  0  0  0
   18.7729   -2.4433   -3.8178 C   0  0  0  0  0  0  0  0  0  0  0  0
   18.3187   -1.4481   -2.8520 C   0  0  1  0  0  0  0  0  0  0  0  0
   17.2224   -1.7158   -2.0775 O   0  0  0  0  0  0  0  0  0  0  0  0
   19.4907   -1.2442   -1.7941 C   0  0  0  0  0  2  0  0  0  0  0  0
   16.2724   -6.8540   -4.5487 C   0  0  0  0  0  0  0  0  0  0  0  0
   17.2418   -5.9421   -4.0910 O   0  0  0  0  0  0  0  0  0  0  0  0
  1  2  1  0
  2  3  1  0
  3  4  1  0
  4  5  1  0
  5  6  1  6
  5  7  1  0
  8  7  1  1
  8  9  1  0
  9 10  1  0
 10 11  1  0
 11 12  1  6
 11 13  1  0
 13 14  1  0
 14 15  1  0
 15 16  1  0
 16 17  1  0
 17 18  1  0
 17 19  1  1
  8 20  1  0
 20 21  1  0
 21 11  1  0
M  RAD  4   3   2   7   2   9   2  19   3
M  END
>  <docking_score>  (3) 
-3.4769999999999999

$$$$
