
     RDKit          3D

 27 27  0  0  0  0  0  0  0  0999 V2000
   14.9554   -0.2382   -5.6329 C   0  0  0  0  0  0  0  0  0  0  0  0
   15.1745   -1.5022   -4.8483 C   0  0  0  0  0  0  0  0  0  0  0  0
   15.0152   -1.2458   -3.3834 C   0  0  0  0  0  0  0  0  0  0  0  0
   14.2098   -2.5780   -5.3255 C   0  0  0  0  0  0  0  0  0  0  0  0
   14.7299   -3.2076   -6.5996 C   0  0  0  0  0  0  0  0  0  0  0  0
   15.8416   -4.1703   -6.2380 C   0  0  0  0  0  0  0  0  0  0  0  0
   15.7191   -5.4388   -7.0566 C   0  0  1  0  0  0  0  0  0  0  0  0
   14.3658   -5.4566   -7.7243 C   0  0  0  0  0  0  0  0  0  0  0  0
   16.8363   -5.3865   -8.0954 C   0  0  0  0  0  3  0  0  0  0  0  0
   17.9100   -4.4235   -7.7102 C   0  0  0  0  0  0  0  0  0  0  0  0
   18.8498   -4.9871   -6.6651 C   0  0  0  0  0  0  0  0  0  0  0  0
   19.5203   -3.8324   -5.9475 C   0  0  2  0  0  0  0  0  0  0  0  0
   20.7329   -3.4440   -6.7719 C   0  0  0  0  0  0  0  0  0  0  0  0
   19.9856   -4.3466   -4.6110 C   0  0  1  0  0  0  0  0  0  0  0  0
   20.4344   -3.2740   -3.6765 C   0  0  0  0  0  0  0  0  0  0  0  0
   19.5882   -2.0547   -3.6641 C   0  0  1  0  0  0  0  0  0  0  0  0
   18.8690   -1.7639   -4.9328 C   0  0  0  0  0  3  0  0  0  0  0  0
   19.4267   -0.4855   -5.5244 C   0  0  0  0  0  0  0  0  0  0  0  0
   20.1824    0.2894   -4.4836 C   0  0  0  0  0  0  0  0  0  0  0  0
   20.7542    1.5427   -5.0815 C   0  0  0  0  0  0  0  0  0  0  0  0
   19.7789    2.3944   -5.5439 O   0  0  0  0  0  0  0  0  0  0  0  0
   18.7872   -1.8495   -2.4232 C   0  0  0  0  0  0  0  0  0  0  0  0
   17.8897   -2.9801   -2.1061 C   0  0  0  0  0  0  0  0  0  0  0  0
   17.4020   -4.0874   -2.6539 C   0  0  0  0  0  0  0  0  0  0  0  0
   16.4951   -4.8314   -1.7509 C   0  0  0  0  0  2  0  0  0  0  0  0
   17.5917   -4.7174   -3.9901 C   0  0  0  0  0  0  0  0  0  0  0  0
   19.0027   -5.3054   -3.9907 C   0  0  0  0  0  0  0  0  0  0  0  0
  1  2  1  0
  2  3  1  0
  2  4  1  0
  4  5  1  0
  5  6  1  0
  6  7  1  0
  7  8  1  6
  7  9  1  0
  9 10  1  0
 10 11  1  0
 11 12  1  0
 12 13  1  6
 12 14  1  0
 14 15  1  1
 15 16  1  0
 16 17  1  6
 17 18  1  0
 18 19  1  0
 19 20  1  0
 20 21  1  0
 16 22  1  0
 22 23  1  0
 23 24  2  3
 24 25  1  0
 24 26  1  0
 26 27  1  0
 27 14  1  0
M  RAD  3   9   2  17   2  25   3
M  END
>  <docking_score>  (1) 
-3.738

$$$$

     RDKit          3D

 27 27  0  0  0  0  0  0  0  0999 V2000
   19.8742   -8.0360   -4.0996 C   0  0  0  0  0  0  0  0  0  0  0  0
   20.3163   -7.7505   -5.5083 C   0  0  0  0  0  0  0  0  0  0  0  0
   21.3790   -8.7144   -5.9312 C   0  0  0  0  0  0  0  0  0  0  0  0
   19.1188   -7.8077   -6.4453 C   0  0  0  0  0  0  0  0  0  0  0  0
   17.8395   -7.8931   -5.6413 C   0  0  0  0  0  0  0  0  0  0  0  0
   17.0734   -6.5993   -5.8230 C   0  0  0  0  0  0  0  0  0  0  0  0
   15.6691   -6.7440   -5.2744 C   0  0  1  0  0  0  0  0  0  0  0  0
   15.4379   -8.1896   -4.9076 C   0  0  0  0  0  0  0  0  0  0  0  0
   15.5993   -5.8523   -4.0376 C   0  0  0  0  0  3  0  0  0  0  0  0
   16.9288   -5.7192   -3.3717 C   0  0  0  0  0  0  0  0  0  0  0  0
   16.9576   -4.6048   -2.3468 C   0  0  0  0  0  0  0  0  0  0  0  0
   18.1603   -3.7253   -2.6251 C   0  0  2  0  0  0  0  0  0  0  0  0
   19.1832   -4.0204   -1.5447 C   0  0  0  0  0  0  0  0  0  0  0  0
   17.7090   -2.2952   -2.4898 C   0  0  1  0  0  0  0  0  0  0  0  0
   18.6625   -1.3056   -3.0700 C   0  0  0  0  0  0  0  0  0  0  0  0
   19.2611   -1.6957   -4.3709 C   0  0  1  0  0  0  0  0  0  0  0  0
   19.3834   -3.1593   -4.6041 C   0  0  0  0  0  3  0  0  0  0  0  0
   19.2530   -3.4262   -6.0898 C   0  0  0  0  0  0  0  0  0  0  0  0
   20.3206   -4.3771   -6.5487 C   0  0  0  0  0  0  0  0  0  0  0  0
   20.5659   -4.2123   -8.0211 C   0  0  0  0  0  0  0  0  0  0  0  0
   19.3972   -4.1112   -8.7384 O   0  0  0  0  0  0  0  0  0  0  0  0
   18.7958   -0.9059   -5.5471 C   0  0  0  0  0  0  0  0  0  0  0  0
   17.3307   -0.9393   -5.7383 C   0  0  0  0  0  0  0  0  0  0  0  0
   16.2552   -1.5916   -5.3118 C   0  0  0  0  0  0  0  0  0  0  0  0
   15.0003   -1.1123   -5.9341 C   0  0  0  0  0  2  0  0  0  0  0  0
   16.0724   -2.7022   -4.3363 C   0  0  0  0  0  0  0  0  0  0  0  0
   16.2883   -2.0954   -2.9500 C   0  0  0  0  0  0  0  0  0  0  0  0
  1  2  1  0
  2  3  1  0
  2  4  1  0
  4  5  1  0
  5  6  1  0
  6  7  1  0
  7  8  1  1
  7  9  1  0
  9 10  1  0
 10 11  1  0
 11 12  1  0
 12 13  1  1
 12 14  1  0
 14 15  1  6
 15 16  1  0
 16 17  1  6
 17 18  1  0
 18 19  1  0
 19 20  1  0
 20 21  1  0
 16 22  1  0
 22 23  1  0
 23 24  2  3
 24 25  1  0
 24 26  1  0
 26 27  1  0
 27 14  1  0
M  RAD  3   9   2  17   2  25   3
M  END
>  <docking_score>  (2) 
-3.645

$$$$

     RDKit          3D

 27 27  0  0  0  0  0  0  0  0999 V2000
    4.7829    8.3699   11.1314 C   0  0  0  0  0  0  0  0  0  0  0  0
    4.8837    9.7240   11.7776 C   0  0  0  0  0  0  0  0  0  0  0  0
    6.2840   10.2431   11.6945 C   0  0  0  0  0  0  0  0  0  0  0  0
    3.9027   10.6830   11.1192 C   0  0  0  0  0  0  0  0  0  0  0  0
    4.5703   11.3847    9.9564 C   0  0  0  0  0  0  0  0  0  0  0  0
    3.6783   11.2489    8.7401 C   0  0  0  0  0  0  0  0  0  0  0  0
    4.0765   10.0289    7.9357 C   0  0  1  0  0  0  0  0  0  0  0  0
    2.8261    9.3530    7.4283 C   0  0  0  0  0  0  0  0  0  0  0  0
    4.9259   10.5405    6.7753 C   0  0  0  0  0  3  0  0  0  0  0  0
    4.8513    9.6363    5.5898 C   0  0  0  0  0  0  0  0  0  0  0  0
    6.0852    9.7192    4.7159 C   0  0  0  0  0  0  0  0  0  0  0  0
    5.6922   10.3269    3.3840 C   0  0  2  0  0  0  0  0  0  0  0  0
    5.0731    9.2163    2.5570 C   0  0  0  0  0  0  0  0  0  0  0  0
    6.9587   10.7859    2.7112 C   0  0  1  0  0  0  0  0  0  0  0  0
    6.7293   11.7082    1.5615 C   0  0  0  0  0  0  0  0  0  0  0  0
    5.6791   12.7345    1.7772 C   0  0  1  0  0  0  0  0  0  0  0  0
    4.6008   12.3544    2.7281 C   0  0  0  0  0  3  0  0  0  0  0  0
    3.3992   13.2430    2.4790 C   0  0  0  0  0  0  0  0  0  0  0  0
    2.2631   12.8560    3.3814 C   0  0  0  0  0  0  0  0  0  0  0  0
    2.3000   13.6706    4.6425 C   0  0  0  0  0  0  0  0  0  0  0  0
    3.4763   14.3689    4.7806 O   0  0  0  0  0  0  0  0  0  0  0  0
    6.1762   14.1338    1.9131 C   0  0  0  0  0  0  0  0  0  0  0  0
    7.1568   14.3085    3.0049 C   0  0  0  0  0  0  0  0  0  0  0  0
    7.6430   13.6643    4.0598 C   0  0  0  0  0  0  0  0  0  0  0  0
    8.6721   14.4387    4.7898 C   0  0  0  0  0  2  0  0  0  0  0  0
    7.3534   12.3246    4.6426 C   0  0  0  0  0  0  0  0  0  0  0  0
    7.9774   11.3005    3.6948 C   0  0  0  0  0  0  0  0  0  0  0  0
  1  2  1  0
  2  3  1  0
  2  4  1  0
  4  5  1  0
  5  6  1  0
  6  7  1  0
  7  8  1  6
  7  9  1  0
  9 10  1  0
 10 11  1  0
 11 12  1  0
 12 13  1  6
 12 14  1  0
 14 15  1  6
 15 16  1  0
 16 17  1  1
 17 18  1  0
 18 19  1  0
 19 20  1  0
 20 21  1  0
 16 22  1  0
 22 23  1  0
 23 24  2  3
 24 25  1  0
 24 26  1  0
 26 27  1  0
 27 14  1  0
M  RAD  3   9   2  17   2  25   3
M  END
>  <docking_score>  (3) 
-3.5979999999999999

$$$$
