
     RDKit          3D

 26 28  0  0  0  0  0  0  0  0999 V2000
   16.9549   -9.5343   -5.4222 C   0  0  0  0  0  0  0  0  0  0  0  0
   17.7099   -8.3514   -5.5622 O   0  0  0  0  0  0  0  0  0  0  0  0
   17.1708   -7.1053   -5.3254 C   0  0  0  0  0  0  0  0  0  0  0  0
   16.1718   -6.6476   -6.1920 C   0  0  0  0  0  0  0  0  0  0  0  0
   15.6408   -5.3768   -5.9293 C   0  0  0  0  0  0  0  0  0  0  0  0
   16.0755   -4.6336   -4.8874 C   0  0  0  0  0  0  0  0  0  0  0  0
   17.0565   -5.1436   -4.0746 C   0  0  0  0  0  0  0  0  0  0  0  0
   17.6079   -6.3566   -4.2772 C   0  0  0  0  0  0  0  0  0  0  0  0
   18.7142   -6.7963   -3.3884 C   0  0  0  0  0  0  0  0  0  0  0  0
   19.2910   -5.4754   -2.8040 C   0  0  0  0  0  0  0  0  0  0  0  0
   19.0242   -4.3856   -3.7948 C   0  0  2  0  0  0  0  0  0  0  0  0
   19.5508   -4.6101   -5.1329 C   0  0  0  0  0  0  0  0  0  0  0  0
   19.0025   -2.9886   -3.2414 C   0  0  0  0  0  0  0  0  0  0  0  0
   18.0603   -2.5525   -2.4797 C   0  0  0  0  0  0  0  0  0  0  0  0
   17.7057   -1.3685   -1.7748 N   0  0  0  0  0  0  0  0  0  0  0  0
   16.7923   -3.5055   -2.4546 C   0  0  0  0  0  0  0  0  0  0  0  0
   15.9019   -2.7148   -3.4474 C   0  0  0  0  0  0  0  0  0  0  0  0
   15.5923   -3.2932   -4.6035 C   0  0  0  0  0  0  0  0  0  0  0  0
   14.9141   -2.5000   -5.6285 C   0  0  0  0  0  0  0  0  0  0  0  0
   15.7880   -1.2882   -5.7543 N   0  0  0  0  0  0  0  0  0  0  0  0
   17.0458   -1.5119   -5.4495 C   0  0  0  0  0  0  0  0  0  0  0  0
   18.0532   -0.5554   -5.4825 C   0  0  0  0  0  0  0  0  0  0  0  0
   19.2617   -0.3331   -5.1713 C   0  0  0  0  0  0  0  0  0  0  0  0
   19.7269    1.1000   -5.5611 C   0  0  0  0  0  0  0  0  0  0  0  0
   20.1928   -1.1851   -4.5534 C   0  0  0  0  0  0  0  0  0  0  0  0
   20.1450   -2.2242   -3.7986 C   0  0  0  0  0  0  0  0  0  0  0  0
  1  2  1  0
  2  3  1  0
  3  4  2  0
  4  5  1  0
  5  6  2  0
  6  7  1  0
  7  8  2  0
  8  9  1  0
  9 10  1  0
 10 11  1  0
 11 12  1  6
 11 13  1  0
 13 14  2  3
 14 15  1  0
 14 16  1  0
 16 17  1  0
 17 18  2  3
 18 19  1  0
 19 20  1  0
 20 21  2  3
 21 22  1  0
 22 23  2  3
 23 24  1  0
 23 25  1  0
 25 26  2  3
  8  3  1  0
 18  6  1  0
 26 13  1  0
M  END
>  <docking_score>  (1) 
-6.383

$$$$

     RDKit          3D

 26 28  0  0  0  0  0  0  0  0999 V2000
   13.6851    0.2145   -4.2602 C   0  0  0  0  0  0  0  0  0  0  0  0
   13.7525   -1.1022   -4.7605 O   0  0  0  0  0  0  0  0  0  0  0  0
   14.7312   -1.9879   -4.3641 C   0  0  0  0  0  0  0  0  0  0  0  0
   15.7275   -1.5204   -3.4997 C   0  0  0  0  0  0  0  0  0  0  0  0
   16.7113   -2.4412   -3.1124 C   0  0  0  0  0  0  0  0  0  0  0  0
   16.6937   -3.7183   -3.5545 C   0  0  0  0  0  0  0  0  0  0  0  0
   15.6862   -4.1123   -4.3989 C   0  0  0  0  0  0  0  0  0  0  0  0
   14.7143   -3.2733   -4.8089 C   0  0  0  0  0  0  0  0  0  0  0  0
   13.7051   -3.7689   -5.7801 C   0  0  0  0  0  0  0  0  0  0  0  0
   14.3929   -4.9813   -6.4700 C   0  0  0  0  0  0  0  0  0  0  0  0
   15.8716   -4.7547   -6.4181 C   0  0  2  0  0  0  0  0  0  0  0  0
   16.3382   -3.5117   -7.0143 C   0  0  0  0  0  0  0  0  0  0  0  0
   16.7268   -5.9855   -6.5279 C   0  0  0  0  0  0  0  0  0  0  0  0
   16.8097   -6.8655   -5.5915 C   0  0  0  0  0  0  0  0  0  0  0  0
   17.4551   -8.1071   -5.3338 N   0  0  0  0  0  0  0  0  0  0  0  0
   16.1947   -6.3674   -4.2165 C   0  0  0  0  0  0  0  0  0  0  0  0
   17.5188   -5.9772   -3.5107 C   0  0  0  0  0  0  0  0  0  0  0  0
   17.7164   -4.6949   -3.2215 C   0  0  0  0  0  0  0  0  0  0  0  0
   19.0291   -4.2783   -2.7283 C   0  0  0  0  0  0  0  0  0  0  0  0
   19.9703   -4.8364   -3.7534 N   0  0  0  0  0  0  0  0  0  0  0  0
   19.4354   -4.9626   -4.9463 C   0  0  0  0  0  0  0  0  0  0  0  0
   20.0958   -5.4571   -6.0644 C   0  0  0  0  0  0  0  0  0  0  0  0
   19.9329   -5.8342   -7.2636 C   0  0  0  0  0  0  0  0  0  0  0  0
   21.2605   -6.2954   -7.9323 C   0  0  0  0  0  0  0  0  0  0  0  0
   18.7565   -5.8775   -8.0310 C   0  0  0  0  0  0  0  0  0  0  0  0
   17.4943   -5.9361   -7.7962 C   0  0  0  0  0  0  0  0  0  0  0  0
  1  2  1  0
  2  3  1  0
  3  4  2  0
  4  5  1  0
  5  6  2  0
  6  7  1  0
  7  8  2  0
  8  9  1  0
  9 10  1  0
 10 11  1  0
 11 12  1  6
 11 13  1  0
 13 14  2  3
 14 15  1  0
 14 16  1  0
 16 17  1  0
 17 18  2  3
 18 19  1  0
 19 20  1  0
 20 21  2  3
 21 22  1  0
 22 23  2  3
 23 24  1  0
 23 25  1  0
 25 26  2  3
  8  3  1  0
 18  6  1  0
 26 13  1  0
M  END
>  <docking_score>  (2) 
-5.9569999999999999

$$$$

     RDKit          3D

 26 28  0  0  0  0  0  0  0  0999 V2000
   13.2564   -0.0059   -4.3107 C   0  0  0  0  0  0  0  0  0  0  0  0
   14.3236   -0.7883   -3.8236 O   0  0  0  0  0  0  0  0  0  0  0  0
   15.2827   -1.3208   -4.6580 C   0  0  0  0  0  0  0  0  0  0  0  0
   15.1418   -1.1143   -6.0349 C   0  0  0  0  0  0  0  0  0  0  0  0
   16.1304   -1.6669   -6.8613 C   0  0  0  0  0  0  0  0  0  0  0  0
   17.1684   -2.3641   -6.3481 C   0  0  0  0  0  0  0  0  0  0  0  0
   17.2478   -2.5273   -4.9878 C   0  0  0  0  0  0  0  0  0  0  0  0
   16.3275   -2.0228   -4.1422 C   0  0  0  0  0  0  0  0  0  0  0  0
   16.4570   -2.3106   -2.6905 C   0  0  0  0  0  0  0  0  0  0  0  0
   17.3399   -3.5894   -2.6255 C   0  0  0  0  0  0  0  0  0  0  0  0
   17.1319   -4.3501   -3.8977 C   0  0  2  0  0  0  0  0  0  0  0  0
   15.7539   -4.7108   -4.1961 C   0  0  0  0  0  0  0  0  0  0  0  0
   18.2358   -5.2938   -4.2841 C   0  0  0  0  0  0  0  0  0  0  0  0
   19.3895   -4.8916   -4.6910 C   0  0  0  0  0  0  0  0  0  0  0  0
   20.6355   -5.4377   -5.1077 N   0  0  0  0  0  0  0  0  0  0  0  0
   19.4163   -3.3464   -5.0494 C   0  0  0  0  0  0  0  0  0  0  0  0
   19.2884   -3.4744   -6.5892 C   0  0  0  0  0  0  0  0  0  0  0  0
   18.1896   -2.9969   -7.1650 C   0  0  0  0  0  0  0  0  0  0  0  0
   17.9618   -3.2713   -8.5837 C   0  0  0  0  0  0  0  0  0  0  0  0
   18.1117   -4.7606   -8.6703 N   0  0  0  0  0  0  0  0  0  0  0  0
   17.8126   -5.3859   -7.5547 C   0  0  0  0  0  0  0  0  0  0  0  0
   17.8728   -6.7625   -7.3753 C   0  0  0  0  0  0  0  0  0  0  0  0
   17.8026   -7.6838   -6.5075 C   0  0  0  0  0  0  0  0  0  0  0  0
   17.9842   -9.1017   -7.1229 C   0  0  0  0  0  0  0  0  0  0  0  0
   17.5829   -7.5875   -5.1229 C   0  0  0  0  0  0  0  0  0  0  0  0
   17.7332   -6.6876   -4.2176 C   0  0  0  0  0  0  0  0  0  0  0  0
  1  2  1  0
  2  3  1  0
  3  4  2  0
  4  5  1  0
  5  6  2  0
  6  7  1  0
  7  8  2  0
  8  9  1  0
  9 10  1  0
 10 11  1  0
 11 12  1  1
 11 13  1  0
 13 14  2  3
 14 15  1  0
 14 16  1  0
 16 17  1  0
 17 18  2  3
 18 19  1  0
 19 20  1  0
 20 21  2  3
 21 22  1  0
 22 23  2  3
 23 24  1  0
 23 25  1  0
 25 26  2  3
  8  3  1  0
 18  6  1  0
 26 13  1  0
M  END
>  <docking_score>  (3) 
-5.7990000000000004

$$$$
