
     RDKit          3D

 12 11  0  0  0  0  0  0  0  0999 V2000
   13.8051   -6.0510   -5.4803 O   0  0  0  0  0  0  0  0  0  0  0  0
   14.2883   -5.6752   -6.7632 C   0  0  0  0  0  0  0  0  0  0  0  0
   14.5787   -4.1998   -6.6961 C   0  0  0  0  0  3  0  0  0  0  0  0
   14.3143   -3.6554   -5.3679 N   0  0  0  0  0  0  0  0  0  0  0  0
   15.4752   -2.9400   -4.8811 C   0  0  2  0  0  0  0  0  0  0  0  0
   16.5626   -3.7714   -4.3450 C   0  0  0  0  0  0  0  0  0  0  0  0
   16.0759   -4.7760   -3.4896 O   0  0  0  0  0  0  0  0  0  0  0  0
   14.9705   -1.8847   -3.8761 C   0  0  1  0  0  0  0  0  0  0  0  0
   16.0401   -1.5706   -3.0070 O   0  0  0  0  0  0  0  0  0  0  0  0
   14.6313   -0.6509   -4.6533 C   0  0  0  0  0  0  0  0  0  0  0  0
   15.2485   -0.4620   -5.8322 O   0  0  0  0  0  0  0  0  0  0  0  0
   13.4350   -0.1288   -4.4739 O   0  0  0  0  0  0  0  0  0  0  0  0
  1  2  1  0
  2  3  1  0
  3  4  1  0
  4  5  1  0
  5  6  1  1
  6  7  1  0
  5  8  1  0
  8  9  1  1
  8 10  1  0
 10 11  1  0
 10 12  1  0
M  RAD  1   3   2
M  END
>  <docking_score>  (1) 
-2.948

$$$$

     RDKit          3D

 12 11  0  0  0  0  0  0  0  0999 V2000
   16.4823   -4.5712   -7.6353 O   0  0  0  0  0  0  0  0  0  0  0  0
   15.9005   -3.4970   -8.3618 C   0  0  0  0  0  0  0  0  0  0  0  0
   16.5023   -2.2319   -7.8112 C   0  0  0  0  0  3  0  0  0  0  0  0
   16.3426   -2.1418   -6.3632 N   0  0  0  0  0  0  0  0  0  0  0  0
   15.0011   -1.7073   -6.0347 C   0  0  2  0  0  0  0  0  0  0  0  0
   14.8414   -0.2725   -5.7576 C   0  0  0  0  0  0  0  0  0  0  0  0
   13.6348   -0.0033   -5.0872 O   0  0  0  0  0  0  0  0  0  0  0  0
   14.5021   -2.6036   -4.8831 C   0  0  1  0  0  0  0  0  0  0  0  0
   14.0593   -3.8223   -5.4459 O   0  0  0  0  0  0  0  0  0  0  0  0
   15.6776   -2.9023   -4.0052 C   0  0  0  0  0  0  0  0  0  0  0  0
   15.9644   -2.0317   -3.0223 O   0  0  0  0  0  0  0  0  0  0  0  0
   16.0151   -4.1664   -3.8501 O   0  0  0  0  0  0  0  0  0  0  0  0
  1  2  1  0
  2  3  1  0
  3  4  1  0
  4  5  1  0
  5  6  1  1
  6  7  1  0
  5  8  1  0
  8  9  1  6
  8 10  1  0
 10 11  1  0
 10 12  1  0
M  RAD  1   3   2
M  END
>  <docking_score>  (2) 
-2.8119999999999998

$$$$

     RDKit          3D

 12 11  0  0  0  0  0  0  0  0999 V2000
   14.3486   -0.7824   -3.6695 O   0  0  0  0  0  0  0  0  0  0  0  0
   14.3364   -1.6119   -4.8237 C   0  0  0  0  0  0  0  0  0  0  0  0
   15.4435   -2.6153   -4.6418 C   0  0  0  0  0  3  0  0  0  0  0  0
   15.8301   -2.7473   -3.2406 N   0  0  0  0  0  0  0  0  0  0  0  0
   17.2472   -3.0258   -3.1375 C   0  0  2  0  0  0  0  0  0  0  0  0
   17.9967   -3.0142   -4.4021 C   0  0  0  0  0  0  0  0  0  0  0  0
   19.2492   -2.3909   -4.2587 O   0  0  0  0  0  0  0  0  0  0  0  0
   17.3950   -4.3498   -2.3605 C   0  0  1  0  0  0  0  0  0  0  0  0
   16.2251   -4.5292   -1.5877 O   0  0  0  0  0  0  0  0  0  0  0  0
   17.4560   -5.4565   -3.3670 C   0  0  0  0  0  0  0  0  0  0  0  0
   18.5669   -6.2122   -3.4027 O   0  0  0  0  0  0  0  0  0  0  0  0
   16.3151   -5.9889   -3.7553 O   0  0  0  0  0  0  0  0  0  0  0  0
  1  2  1  0
  2  3  1  0
  3  4  1  0
  4  5  1  0
  5  6  1  6
  6  7  1  0
  5  8  1  0
  8  9  1  1
  8 10  1  0
 10 11  1  0
 10 12  1  0
M  RAD  1   3   2
M  END
>  <docking_score>  (3) 
-2.778

$$$$
