
     RDKit          3D

  4  3  0  0  0  0  0  0  0  0999 V2000
  137.4701  119.2112  139.8913 C   0  0  0  0  0  0  0  0  0  0  0  0
  136.6054  120.8082  139.7923 S   0  0  0  0  0  0  0  0  0  0  0  0
  135.0402  120.5227  139.1574 O   0  0  0  0  0  0  0  0  0  0  0  0
  133.8157  121.5674  140.0479 Br  0  0  0  0  0  0  0  0  0  0  0  0
  1  2  1  0
  2  3  1  0
  3  4  1  0
M  END
>  <docking_score>  (1) 
-2.2330000000000001

$$$$

     RDKit          3D

  4  3  0  0  0  0  0  0  0  0999 V2000
  137.1774  121.9792  140.3378 C   0  0  0  0  0  0  0  0  0  0  0  0
  135.7730  121.0779  139.6142 S   0  0  0  0  0  0  0  0  0  0  0  0
  136.2447  120.5219  138.0642 O   0  0  0  0  0  0  0  0  0  0  0  0
  135.7413  118.7641  137.8622 Br  0  0  0  0  0  0  0  0  0  0  0  0
  1  2  1  0
  2  3  1  0
  3  4  1  0
M  END
>  <docking_score>  (2) 
-2.113

$$$$

     RDKit          3D

  4  3  0  0  0  0  0  0  0  0999 V2000
  135.6053  118.9595  138.4584 C   0  0  0  0  0  0  0  0  0  0  0  0
  136.4333  120.5362  138.8278 S   0  0  0  0  0  0  0  0  0  0  0  0
  135.2610  121.7820  138.7376 O   0  0  0  0  0  0  0  0  0  0  0  0
  133.9644  121.4994  140.0115 Br  0  0  0  0  0  0  0  0  0  0  0  0
  1  2  1  0
  2  3  1  0
  3  4  1  0
M  END
>  <docking_score>  (3) 
-2.101

$$$$
