
     RDKit          3D

 31 30  0  0  0  0  0  0  0  0999 V2000
    4.0723    7.7670    6.3858 C   0  0  0  0  0  0  0  0  0  0  0  0
    4.0576    8.3848    5.0669 C   0  0  0  0  0  0  0  0  0  0  0  0
    3.4382    7.8722    4.1294 O   0  0  0  0  0  0  0  0  0  0  0  0
    4.7946    9.5333    4.8993 O   0  0  0  0  0  0  0  0  0  0  0  0
    4.1172   10.7765    4.6158 C   0  0  0  0  0  2  0  0  0  0  0  0
    5.0378   11.5418    3.6161 C   0  0  0  0  0  0  0  0  0  0  0  0
    6.0979   12.2268    4.4336 C   0  0  0  0  0  3  0  0  0  0  0  0
    7.4504   12.0964    4.0438 C   0  0  0  0  0  0  0  0  0  0  0  0
    8.2174   11.2043    3.9172 O   0  0  0  0  0  0  0  0  0  0  0  0
    5.7011   12.4045    5.8523 C   0  0  0  0  0  0  0  0  0  0  0  0
    6.1692   13.8220    6.2913 C   0  0  0  0  0  3  0  0  0  0  0  0
    5.2212   14.1613    7.3997 C   0  0  0  0  0  0  0  0  0  0  0  0
    5.1729   13.1696    8.4737 C   0  0  0  0  0  0  0  0  0  0  0  0
    5.2888   13.8971    9.8574 C   0  0  2  0  0  0  0  0  0  0  0  0
    6.4663   14.8556    9.7080 C   0  0  0  0  0  0  0  0  0  0  0  0
    5.8695   12.7876   10.6038 O   0  0  0  0  0  0  0  0  0  0  0  0
    4.9305   11.9818   10.9236 C   0  0  0  0  0  3  0  0  0  0  0  0
    4.0811   11.8309   12.0070 C   0  0  1  0  0  0  0  0  0  0  0  0
    3.0382   10.8907   12.0040 O   0  0  0  0  0  0  0  0  0  0  0  0
    4.8524   11.6584   13.3221 C   0  0  0  0  0  0  0  0  0  0  0  0
    5.9715   12.4883   13.3633 O   0  0  0  0  0  0  0  0  0  0  0  0
    5.7527   13.5775   14.2640 C   0  0  0  0  0  0  0  0  0  0  0  0
    5.4429   14.8495   13.4177 C   0  0  0  0  0  3  0  0  0  0  0  0
    4.1355   15.4340   13.9218 C   0  0  0  0  0  0  0  0  0  0  0  0
    6.6373   15.7175   13.6558 C   0  0  0  0  0  0  0  0  0  0  0  0
    7.8946   14.8454   13.7056 C   0  0  0  0  0  0  0  0  0  0  0  0
    8.8652   15.2691   12.5454 C   0  0  0  0  0  0  0  0  0  0  0  0
    9.9623   14.2213   12.7447 C   0  0  2  0  0  0  0  0  0  0  0  0
    9.9845   13.6765   14.1457 C   0  0  0  0  0  1  0  0  0  0  0  0
   11.2361   15.1393   12.6441 C   0  0  0  0  0  3  0  0  0  0  0  0
   11.6259   15.2633   11.3410 O   0  0  0  0  0  0  0  0  0  0  0  0
  1  2  1  0
  2  3  2  0
  2  4  1  0
  4  5  1  0
  5  6  1  0
  6  7  1  0
  7  8  1  0
  8  9  2  0
  7 10  1  0
 10 11  1  0
 11 12  1  0
 12 13  1  0
 13 14  1  0
 14 15  1  6
 14 16  1  0
 16 17  1  0
 17 18  1  0
 18 19  1  6
 18 20  1  0
 20 21  1  0
 21 22  1  0
 22 23  1  0
 23 24  1  0
 23 25  1  0
 25 26  1  0
 26 27  1  0
 27 28  1  0
 28 29  1  1
 28 30  1  0
 30 31  1  0
M  RAD  7   5   3   7   2  11   2  17   2  23   2  29   2  30   2
M  END
>  <docking_score>  (1) 
-2.2149999999999999

$$$$

     RDKit          3D

 31 30  0  0  0  0  0  0  0  0999 V2000
   18.3564   -3.8186   -8.2235 C   0  0  0  0  0  0  0  0  0  0  0  0
   18.0734   -5.0827   -7.5576 C   0  0  0  0  0  0  0  0  0  0  0  0
   17.0377   -5.2412   -6.9037 O   0  0  0  0  0  0  0  0  0  0  0  0
   19.0235   -6.0721   -7.6506 O   0  0  0  0  0  0  0  0  0  0  0  0
   19.9851   -6.0340   -8.7270 C   0  0  0  0  0  2  0  0  0  0  0  0
   21.3649   -5.7619   -8.0524 C   0  0  0  0  0  0  0  0  0  0  0  0
   21.0844   -5.0847   -6.7395 C   0  0  0  0  0  3  0  0  0  0  0  0
   21.3127   -3.6942   -6.6267 C   0  0  0  0  0  0  0  0  0  0  0  0
   21.3690   -2.7776   -7.3729 O   0  0  0  0  0  0  0  0  0  0  0  0
   21.2227   -6.0016   -5.5812 C   0  0  0  0  0  0  0  0  0  0  0  0
   20.5386   -5.3172   -4.3628 C   0  0  0  0  0  3  0  0  0  0  0  0
   19.4457   -6.2771   -4.0071 C   0  0  0  0  0  0  0  0  0  0  0  0
   18.9072   -6.1016   -2.6586 C   0  0  0  0  0  0  0  0  0  0  0  0
   17.7483   -5.0466   -2.6957 C   0  0  2  0  0  0  0  0  0  0  0  0
   17.9003   -4.3325   -4.0353 C   0  0  0  0  0  0  0  0  0  0  0  0
   18.3308   -4.0961   -1.7563 O   0  0  0  0  0  0  0  0  0  0  0  0
   18.6002   -3.0184   -2.3883 C   0  0  0  0  0  3  0  0  0  0  0  0
   19.6691   -2.1393   -2.4362 C   0  0  1  0  0  0  0  0  0  0  0  0
   20.9741   -2.5759   -2.7153 O   0  0  0  0  0  0  0  0  0  0  0  0
   19.3828   -0.9354   -3.3434 C   0  0  0  0  0  0  0  0  0  0  0  0
   18.3990   -1.2354   -4.2842 O   0  0  0  0  0  0  0  0  0  0  0  0
   17.0990   -1.1376   -3.6961 C   0  0  0  0  0  0  0  0  0  0  0  0
   16.0467   -1.1412   -4.8462 C   0  0  0  0  0  3  0  0  0  0  0  0
   16.6222   -1.9459   -5.9978 C   0  0  0  0  0  0  0  0  0  0  0  0
   14.8434   -1.7569   -4.2062 C   0  0  0  0  0  0  0  0  0  0  0  0
   13.9254   -2.3218   -5.2933 C   0  0  0  0  0  0  0  0  0  0  0  0
   14.7482   -3.2953   -6.2116 C   0  0  0  0  0  0  0  0  0  0  0  0
   13.6291   -4.2552   -6.6211 C   0  0  2  0  0  0  0  0  0  0  0  0
   13.5663   -5.4698   -5.7375 C   0  0  0  0  0  1  0  0  0  0  0  0
   14.2049   -4.7758   -7.9896 C   0  0  0  0  0  3  0  0  0  0  0  0
   13.2260   -5.4060   -8.7036 O   0  0  0  0  0  0  0  0  0  0  0  0
  1  2  1  0
  2  3  2  0
  2  4  1  0
  4  5  1  0
  5  6  1  0
  6  7  1  0
  7  8  1  0
  8  9  2  0
  7 10  1  0
 10 11  1  0
 11 12  1  0
 12 13  1  0
 13 14  1  0
 14 15  1  6
 14 16  1  0
 16 17  1  0
 17 18  1  0
 18 19  1  6
 18 20  1  0
 20 21  1  0
 21 22  1  0
 22 23  1  0
 23 24  1  0
 23 25  1  0
 25 26  1  0
 26 27  1  0
 27 28  1  0
 28 29  1  1
 28 30  1  0
 30 31  1  0
M  RAD  7   5   3   7   2  11   2  17   2  23   2  29   2  30   2
M  END
>  <docking_score>  (2) 
-0.109

$$$$

     RDKit          3D

 31 30  0  0  0  0  0  0  0  0999 V2000
   15.8712   -3.0040   -3.9965 C   0  0  0  0  0  0  0  0  0  0  0  0
   14.9106   -3.7636   -4.7849 C   0  0  0  0  0  0  0  0  0  0  0  0
   13.9292   -3.2150   -5.2960 O   0  0  0  0  0  0  0  0  0  0  0  0
   15.1175   -5.1181   -4.8988 O   0  0  0  0  0  0  0  0  0  0  0  0
   14.1855   -5.9172   -5.6586 C   0  0  0  0  0  2  0  0  0  0  0  0
   14.5115   -5.6368   -7.1579 C   0  0  0  0  0  0  0  0  0  0  0  0
   16.0093   -5.6518   -7.2904 C   0  0  0  0  0  3  0  0  0  0  0  0
   16.6424   -4.6023   -7.9946 C   0  0  0  0  0  0  0  0  0  0  0  0
   17.1047   -3.5489   -7.7174 O   0  0  0  0  0  0  0  0  0  0  0  0
   16.5743   -7.0232   -7.2462 C   0  0  0  0  0  0  0  0  0  0  0  0
   16.6316   -7.4538   -5.7521 C   0  0  0  0  0  3  0  0  0  0  0  0
   16.6545   -8.9489   -5.8334 C   0  0  0  0  0  0  0  0  0  0  0  0
   17.6361   -9.4844   -6.7764 C   0  0  0  0  0  0  0  0  0  0  0  0
   18.6051   -8.3366   -7.2246 C   0  0  2  0  0  0  0  0  0  0  0  0
   18.4174   -8.2213   -8.7342 C   0  0  0  0  0  0  0  0  0  0  0  0
   19.8494   -9.0877   -7.1112 O   0  0  0  0  0  0  0  0  0  0  0  0
   20.8051   -8.2590   -6.9284 C   0  0  0  0  0  3  0  0  0  0  0  0
   20.9379   -7.0166   -6.3313 C   0  0  1  0  0  0  0  0  0  0  0  0
   20.0505   -5.9641   -6.6082 O   0  0  0  0  0  0  0  0  0  0  0  0
   21.0639   -7.1228   -4.8058 C   0  0  0  0  0  0  0  0  0  0  0  0
   21.3571   -5.8847   -4.2365 O   0  0  0  0  0  0  0  0  0  0  0  0
   20.3429   -4.9313   -4.5647 C   0  0  0  0  0  0  0  0  0  0  0  0
   21.0275   -3.5438   -4.7554 C   0  0  0  0  0  3  0  0  0  0  0  0
   20.0295   -2.6246   -5.4365 C   0  0  0  0  0  0  0  0  0  0  0  0
   21.3803   -3.1422   -3.3587 C   0  0  0  0  0  0  0  0  0  0  0  0
   20.9679   -4.2559   -2.3925 C   0  0  0  0  0  0  0  0  0  0  0  0
   19.9279   -3.6881   -1.3611 C   0  0  0  0  0  0  0  0  0  0  0  0
   19.9308   -2.2190   -1.7891 C   0  0  2  0  0  0  0  0  0  0  0  0
   20.6899   -1.3457   -0.8295 C   0  0  0  0  0  1  0  0  0  0  0  0
   18.4163   -1.8642   -1.5527 C   0  0  0  0  0  3  0  0  0  0  0  0
   18.0624   -0.7824   -2.3074 O   0  0  0  0  0  0  0  0  0  0  0  0
  1  2  1  0
  2  3  2  0
  2  4  1  0
  4  5  1  0
  5  6  1  0
  6  7  1  0
  7  8  1  0
  8  9  2  0
  7 10  1  0
 10 11  1  0
 11 12  1  0
 12 13  1  0
 13 14  1  0
 14 15  1  6
 14 16  1  0
 16 17  1  0
 17 18  1  0
 18 19  1  1
 18 20  1  0
 20 21  1  0
 21 22  1  0
 22 23  1  0
 23 24  1  0
 23 25  1  0
 25 26  1  0
 26 27  1  0
 27 28  1  0
 28 29  1  1
 28 30  1  0
 30 31  1  0
M  RAD  7   5   3   7   2  11   2  17   2  23   2  29   2  30   2
M  END
>  <docking_score>  (3) 
0.58099999999999996

$$$$
