
     RDKit          3D

 26 26  0  0  0  0  0  0  0  0999 V2000
   17.0718   -3.4002   -1.4574 C   0  0  0  0  0  0  0  0  0  0  0  0
   17.6923   -3.0309   -2.7751 C   0  0  1  0  0  0  0  0  0  0  0  0
   18.2529   -1.6728   -2.8186 C   0  0  0  0  0  0  0  0  0  0  0  0
   19.6028   -1.7225   -2.0914 C   0  0  2  0  0  0  0  0  0  0  0  0
   20.0909   -0.4655   -1.8235 O   0  0  0  0  0  0  0  0  0  0  0  0
   20.5098   -2.5237   -3.0240 C   0  0  2  0  0  0  0  0  0  0  0  0
   20.3596   -1.9334   -4.2907 O   0  0  0  0  0  0  0  0  0  0  0  0
   20.0390   -3.9405   -3.0971 C   0  0  1  0  0  0  0  0  0  0  0  0
   20.5217   -4.6885   -2.0284 O   0  0  0  0  0  0  0  0  0  0  0  0
   18.6055   -4.1116   -3.3178 C   0  0  1  0  0  0  0  0  0  0  0  0
   18.0610   -5.3832   -2.7863 N   0  0  0  0  0  0  0  0  0  0  0  0
   17.4602   -6.1135   -3.8498 C   0  0  0  0  0  3  0  0  0  0  0  0
   16.0400   -5.5863   -4.1256 C   0  0  0  0  0  0  0  0  0  0  0  0
   15.4932   -6.5175   -5.2868 C   0  0  1  0  0  0  0  0  0  0  0  0
   16.5813   -7.1863   -5.6834 O   0  0  0  0  0  0  0  0  0  0  0  0
   14.4781   -7.4090   -4.3878 C   0  0  0  0  0  0  0  0  0  0  0  0
   14.7238   -5.8653   -6.1082 O   0  0  0  0  0  0  0  0  0  0  0  0
   15.6814   -5.1304   -6.8501 C   0  0  1  0  0  0  0  0  0  0  0  0
   15.6919   -5.6198   -8.2477 O   0  0  0  0  0  0  0  0  0  0  0  0
   14.8657   -3.7000   -7.2714 C   0  0  2  0  0  0  0  0  0  0  0  0
   15.6410   -3.4040   -8.3819 O   0  0  0  0  0  0  0  0  0  0  0  0
   15.1427   -2.9026   -6.0543 C   0  0  0  0  0  3  0  0  0  0  0  0
   15.6019   -1.5414   -6.3480 C   0  0  0  0  0  0  0  0  0  0  0  0
   14.3184   -0.7696   -6.2873 O   0  0  0  0  0  0  0  0  0  0  0  0
   14.7796    0.2385   -5.4370 O   0  0  0  0  0  0  0  0  0  0  0  0
   13.7181    0.1548   -4.5038 O   0  0  0  0  0  0  0  0  0  0  0  0
  2  1  1  1
  2  3  1  0
  3  4  1  0
  4  5  1  6
  4  6  1  0
  6  7  1  6
  6  8  1  0
  8  9  1  1
  8 10  1  0
 10 11  1  1
 11 12  1  0
 12 13  1  0
 13 14  1  0
 14 15  1  0
 14 16  1  1
 14 17  1  0
 17 18  1  0
 18 19  1  6
 18 20  1  0
 20 21  1  6
 20 22  1  0
 22 23  1  0
 23 24  1  0
 24 25  1  0
 25 26  1  0
 10  2  1  0
M  RAD  2  12   2  22   2
M  END
>  <docking_score>  (1) 
-4.4829999999999997

$$$$

     RDKit          3D

 26 26  0  0  0  0  0  0  0  0999 V2000
   15.9277   -5.7626   -4.6982 C   0  0  0  0  0  0  0  0  0  0  0  0
   17.0006   -6.8062   -4.5661 C   0  0  1  0  0  0  0  0  0  0  0  0
   17.0331   -7.7809   -5.6659 C   0  0  0  0  0  0  0  0  0  0  0  0
   17.7189   -7.0929   -6.8533 C   0  0  2  0  0  0  0  0  0  0  0  0
   17.5603   -7.8006   -8.0213 O   0  0  0  0  0  0  0  0  0  0  0  0
   19.1816   -6.9688   -6.4300 C   0  0  2  0  0  0  0  0  0  0  0  0
   19.5531   -8.2497   -5.9863 O   0  0  0  0  0  0  0  0  0  0  0  0
   19.3005   -6.0131   -5.2869 C   0  0  1  0  0  0  0  0  0  0  0  0
   19.3454   -4.6962   -5.7326 O   0  0  0  0  0  0  0  0  0  0  0  0
   18.3486   -6.2196   -4.1986 C   0  0  1  0  0  0  0  0  0  0  0  0
   18.0409   -4.9933   -3.4256 N   0  0  0  0  0  0  0  0  0  0  0  0
   19.1159   -4.7232   -2.5329 C   0  0  0  0  0  3  0  0  0  0  0  0
   18.7463   -3.5681   -1.5842 C   0  0  0  0  0  0  0  0  0  0  0  0
   19.5941   -2.3372   -2.1140 C   0  0  1  0  0  0  0  0  0  0  0  0
   19.0189   -1.2876   -1.5171 O   0  0  0  0  0  0  0  0  0  0  0  0
   21.0166   -2.7563   -1.4552 C   0  0  0  0  0  0  0  0  0  0  0  0
   19.7908   -2.4020   -3.3981 O   0  0  0  0  0  0  0  0  0  0  0  0
   19.3893   -1.1039   -3.7993 C   0  0  1  0  0  0  0  0  0  0  0  0
   20.5156   -0.4414   -4.4961 O   0  0  0  0  0  0  0  0  0  0  0  0
   18.5402   -1.3654   -5.2483 C   0  0  2  0  0  0  0  0  0  0  0  0
   18.4999   -0.0370   -5.6430 O   0  0  0  0  0  0  0  0  0  0  0  0
   17.2835   -1.9157   -4.6900 C   0  0  0  0  0  3  0  0  0  0  0  0
   16.0806   -1.3023   -5.2615 C   0  0  0  0  0  0  0  0  0  0  0  0
   14.9945   -2.1139   -4.6221 O   0  0  0  0  0  0  0  0  0  0  0  0
   13.9252   -1.3523   -5.1001 O   0  0  0  0  0  0  0  0  0  0  0  0
   14.7045   -0.4456   -5.8584 O   0  0  0  0  0  0  0  0  0  0  0  0
  2  1  1  6
  2  3  1  0
  3  4  1  0
  4  5  1  6
  4  6  1  0
  6  7  1  1
  6  8  1  0
  8  9  1  6
  8 10  1  0
 10 11  1  6
 11 12  1  0
 12 13  1  0
 13 14  1  0
 14 15  1  0
 14 16  1  1
 14 17  1  0
 17 18  1  0
 18 19  1  6
 18 20  1  0
 20 21  1  1
 20 22  1  0
 22 23  1  0
 23 24  1  0
 24 25  1  0
 25 26  1  0
 10  2  1  0
M  RAD  2  12   2  22   2
M  END
>  <docking_score>  (2) 
-3.8279999999999998

$$$$

     RDKit          3D

 26 26  0  0  0  0  0  0  0  0999 V2000
   20.1287   -7.3695   -7.0794 C   0  0  0  0  0  0  0  0  0  0  0  0
   18.7153   -6.8712   -7.1867 C   0  0  1  0  0  0  0  0  0  0  0  0
   17.6987   -7.9328   -7.1767 C   0  0  0  0  0  0  0  0  0  0  0  0
   17.5299   -8.3768   -5.7179 C   0  0  2  0  0  0  0  0  0  0  0  0
   16.8163   -9.5474   -5.6144 O   0  0  0  0  0  0  0  0  0  0  0  0
   16.8356   -7.1979   -5.0379 C   0  0  2  0  0  0  0  0  0  0  0  0
   15.7396   -6.8839   -5.8598 O   0  0  0  0  0  0  0  0  0  0  0  0
   17.7561   -6.0209   -4.9969 C   0  0  1  0  0  0  0  0  0  0  0  0
   18.6265   -6.0983   -3.9147 O   0  0  0  0  0  0  0  0  0  0  0  0
   18.4294   -5.7106   -6.2552 C   0  0  1  0  0  0  0  0  0  0  0  0
   19.7282   -5.0166   -6.0893 N   0  0  0  0  0  0  0  0  0  0  0  0
   19.5351   -3.6178   -6.2665 C   0  0  0  0  0  3  0  0  0  0  0  0
   19.6800   -2.8829   -4.9213 C   0  0  0  0  0  0  0  0  0  0  0  0
   19.1527   -1.4165   -5.2151 C   0  0  1  0  0  0  0  0  0  0  0  0
   20.2666   -0.7457   -5.5278 O   0  0  0  0  0  0  0  0  0  0  0  0
   18.2300   -1.7734   -6.5014 C   0  0  0  0  0  0  0  0  0  0  0  0
   18.3140   -1.0128   -4.3065 O   0  0  0  0  0  0  0  0  0  0  0  0
   18.0026   -2.2361   -3.6630 C   0  0  1  0  0  0  0  0  0  0  0  0
   18.5123   -2.1966   -2.2732 O   0  0  0  0  0  0  0  0  0  0  0  0
   16.3899   -2.0391   -3.1635 C   0  0  2  0  0  0  0  0  0  0  0  0
   16.5193   -2.7165   -1.9608 O   0  0  0  0  0  0  0  0  0  0  0  0
   15.7125   -2.7765   -4.2549 C   0  0  0  0  0  3  0  0  0  0  0  0
   14.5283   -2.0833   -4.7716 C   0  0  0  0  0  0  0  0  0  0  0  0
   15.1037   -0.7577   -5.1699 O   0  0  0  0  0  0  0  0  0  0  0  0
   13.9197   -0.2169   -5.6774 O   0  0  0  0  0  0  0  0  0  0  0  0
   13.1725   -0.3222   -4.4794 O   0  0  0  0  0  0  0  0  0  0  0  0
  2  1  1  1
  2  3  1  0
  3  4  1  0
  4  5  1  6
  4  6  1  0
  6  7  1  6
  6  8  1  0
  8  9  1  1
  8 10  1  0
 10 11  1  1
 11 12  1  0
 12 13  1  0
 13 14  1  0
 14 15  1  0
 14 16  1  6
 14 17  1  0
 17 18  1  0
 18 19  1  1
 18 20  1  0
 20 21  1  1
 20 22  1  0
 22 23  1  0
 23 24  1  0
 24 25  1  0
 25 26  1  0
 10  2  1  0
M  RAD  2  12   2  22   2
M  END
>  <docking_score>  (3) 
-3.6909999999999998

$$$$
