
     RDKit          3D

 31 32  0  0  0  0  0  0  0  0999 V2000
   20.7544   -8.3505   -3.2389 C   0  0  0  0  0  0  0  0  0  0  0  0
   19.9966   -7.0475   -3.1464 C   0  0  0  0  0  0  0  0  0  0  0  0
   20.9182   -5.9248   -3.6212 C   0  0  0  0  0  0  0  0  0  0  0  0
   18.7938   -7.1531   -4.0611 C   0  0  0  0  0  0  0  0  0  0  0  0
   18.9197   -8.3057   -5.0320 C   0  0  0  0  0  0  0  0  0  0  0  0
   17.6426   -8.3378   -5.8440 C   0  0  0  0  0  0  0  0  0  0  0  0
   18.0664   -8.4188   -7.3340 C   0  0  1  0  0  0  0  0  0  0  0  0
   17.0255   -7.6208   -8.1281 C   0  0  0  0  0  0  0  0  0  0  0  0
   19.4489   -7.9554   -7.5054 C   0  0  0  0  0  3  0  0  0  0  0  0
   19.8055   -7.2984   -8.7274 C   0  0  0  0  0  0  0  0  0  0  0  0
   20.4822   -6.0395   -8.7390 C   0  0  0  0  0  0  0  0  0  0  0  0
   21.1454   -5.5012   -7.5201 C   0  0  2  0  0  0  0  0  0  0  0  0
   21.3805   -6.5801   -6.4862 C   0  0  0  0  0  0  0  0  0  0  0  0
   20.2473   -4.4580   -6.8954 C   0  0  0  0  0  0  0  0  0  0  0  0
   20.9915   -3.1343   -6.9574 C   0  0  0  0  0  0  0  0  0  0  0  0
   20.0335   -1.9649   -6.8777 C   0  0  1  0  0  0  0  0  0  0  0  0
   20.0687   -1.3235   -8.1965 N   0  0  0  0  0  0  0  0  0  0  0  0
   18.6419   -2.5310   -6.6984 C   0  0  0  0  0  0  0  0  0  0  0  0
   17.7118   -1.7865   -7.6218 C   0  0  0  0  0  0  0  0  0  0  0  0
   16.3419   -2.4261   -7.4675 C   0  0  1  0  0  0  0  0  0  0  0  0
   16.4502   -3.8699   -7.0560 C   0  0  0  0  0  1  0  0  0  0  0  0
   15.4815   -1.6336   -6.5036 C   0  0  0  0  0  3  0  0  0  0  0  0
   16.1729   -0.6637   -5.8248 O   0  0  0  0  0  0  0  0  0  0  0  0
   14.6141   -2.5043   -5.6505 C   0  0  1  0  0  0  0  0  0  0  0  0
   14.8140   -3.8798   -5.7769 O   0  0  0  0  0  0  0  0  0  0  0  0
   15.3319   -3.2382   -4.5383 C   0  0  1  0  0  0  0  0  0  0  0  0
   16.8425   -3.3123   -4.5500 C   0  0  1  0  0  0  0  0  0  0  0  0
   17.6708   -2.5164   -3.6399 C   0  0  0  0  0  0  0  0  0  0  0  0
   17.5567   -4.0378   -3.4773 C   0  0  1  0  0  0  0  0  0  0  0  0
   16.7256   -4.5477   -1.9605 S   0  0  0  0  0  0  0  0  0  0  0  0
   16.4348   -3.1170   -0.8882 C   0  0  0  0  0  1  0  0  0  0  0  0
  1  2  1  0
  2  3  1  0
  2  4  1  0
  4  5  1  0
  5  6  1  0
  6  7  1  0
  7  8  1  6
  7  9  1  0
  9 10  1  0
 10 11  1  0
 11 12  1  0
 12 13  1  1
 12 14  1  0
 14 15  1  0
 15 16  1  0
 16 17  1  6
 16 18  1  0
 18 19  1  0
 19 20  1  0
 20 21  1  1
 20 22  1  0
 22 23  1  0
 24 22  1  6
 24 25  1  0
 26 25  1  6
 26 27  1  0
 27 28  1  1
 28 29  1  0
 29 30  1  1
 30 31  1  0
 26 24  1  0
 29 27  1  0
M  RAD  4   9   2  21   2  22   2  31   2
M  END
>  <docking_score>  (1) 
-1.889

$$$$

     RDKit          3D

 31 32  0  0  0  0  0  0  0  0999 V2000
   16.5283   -7.3481   -6.4330 C   0  0  0  0  0  0  0  0  0  0  0  0
   15.8740   -8.5168   -5.7354 C   0  0  0  0  0  0  0  0  0  0  0  0
   16.9726   -9.3735   -5.1074 C   0  0  0  0  0  0  0  0  0  0  0  0
   14.9717   -7.9568   -4.6552 C   0  0  0  0  0  0  0  0  0  0  0  0
   14.8656   -6.4501   -4.7303 C   0  0  0  0  0  0  0  0  0  0  0  0
   15.1555   -5.9193   -3.3427 C   0  0  0  0  0  0  0  0  0  0  0  0
   15.4909   -4.4136   -3.5049 C   0  0  1  0  0  0  0  0  0  0  0  0
   16.1710   -3.9748   -2.2026 C   0  0  0  0  0  0  0  0  0  0  0  0
   16.2911   -4.1884   -4.7151 C   0  0  0  0  0  3  0  0  0  0  0  0
   17.5698   -4.8256   -4.8202 C   0  0  0  0  0  0  0  0  0  0  0  0
   18.4402   -4.5946   -5.9301 C   0  0  0  0  0  0  0  0  0  0  0  0
   19.8861   -4.2990   -5.7370 C   0  0  2  0  0  0  0  0  0  0  0  0
   20.5545   -5.3241   -4.8478 C   0  0  0  0  0  0  0  0  0  0  0  0
   20.0241   -2.9521   -5.0647 C   0  0  0  0  0  0  0  0  0  0  0  0
   20.0326   -1.9036   -6.1650 C   0  0  0  0  0  0  0  0  0  0  0  0
   19.8098   -0.5171   -5.5999 C   0  0  1  0  0  0  0  0  0  0  0  0
   19.9560   -0.6453   -4.1459 N   0  0  0  0  0  0  0  0  0  0  0  0
   20.9464    0.3569   -6.0832 C   0  0  0  0  0  0  0  0  0  0  0  0
   20.4052    1.2862   -7.1393 C   0  0  0  0  0  0  0  0  0  0  0  0
   20.8474    2.6879   -6.7533 C   0  0  1  0  0  0  0  0  0  0  0  0
   21.3777    3.4458   -7.9407 C   0  0  0  0  0  1  0  0  0  0  0  0
   19.7234    3.4390   -6.0678 C   0  0  0  0  0  3  0  0  0  0  0  0
   18.8387    2.6208   -5.4140 O   0  0  0  0  0  0  0  0  0  0  0  0
   19.0948    4.4721   -6.9487 C   0  0  1  0  0  0  0  0  0  0  0  0
   18.0114    5.1637   -6.4048 O   0  0  0  0  0  0  0  0  0  0  0  0
   19.2970    5.9057   -6.5075 C   0  0  1  0  0  0  0  0  0  0  0  0
   19.8049    6.1896   -5.1113 C   0  0  1  0  0  0  0  0  0  0  0  0
   19.6113    7.4873   -4.4584 C   0  0  0  0  0  0  0  0  0  0  0  0
   18.8593    6.2402   -3.9754 C   0  0  1  0  0  0  0  0  0  0  0  0
   17.0758    6.3218   -4.2281 S   0  0  0  0  0  0  0  0  0  0  0  0
   16.5191    4.9351   -5.2521 C   0  0  0  0  0  1  0  0  0  0  0  0
  1  2  1  0
  2  3  1  0
  2  4  1  0
  4  5  1  0
  5  6  1  0
  6  7  1  0
  7  8  1  1
  7  9  1  0
  9 10  1  0
 10 11  1  0
 11 12  1  0
 12 13  1  1
 12 14  1  0
 14 15  1  0
 15 16  1  0
 16 17  1  1
 16 18  1  0
 18 19  1  0
 19 20  1  0
 20 21  1  6
 20 22  1  0
 22 23  1  0
 24 22  1  1
 24 25  1  0
 26 25  1  1
 26 27  1  0
 27 28  1  6
 28 29  1  0
 29 30  1  6
 30 31  1  0
 26 24  1  0
 29 27  1  0
M  RAD  4   9   2  21   2  22   2  31   2
M  END
>  <docking_score>  (2) 
0.629

$$$$

     RDKit          3D

 31 32  0  0  0  0  0  0  0  0999 V2000
   19.3168   -1.1718   -1.5214 C   0  0  0  0  0  0  0  0  0  0  0  0
   19.8938   -0.1083   -2.4251 C   0  0  0  0  0  0  0  0  0  0  0  0
   20.6495    0.8969   -1.5569 C   0  0  0  0  0  0  0  0  0  0  0  0
   20.8508   -0.7911   -3.3805 C   0  0  0  0  0  0  0  0  0  0  0  0
   20.4176   -0.6391   -4.8215 C   0  0  0  0  0  0  0  0  0  0  0  0
   19.0943   -1.3606   -4.9609 C   0  0  0  0  0  0  0  0  0  0  0  0
   19.0623   -2.4465   -3.8536 C   0  0  1  0  0  0  0  0  0  0  0  0
   18.0029   -3.4709   -4.2768 C   0  0  0  0  0  0  0  0  0  0  0  0
   20.4016   -3.0087   -3.6405 C   0  0  0  0  0  3  0  0  0  0  0  0
   20.5532   -4.0850   -2.7074 C   0  0  0  0  0  0  0  0  0  0  0  0
   19.4433   -4.6171   -1.9808 C   0  0  0  0  0  0  0  0  0  0  0  0
   18.2796   -5.2308   -2.6767 C   0  0  2  0  0  0  0  0  0  0  0  0
   17.0728   -5.3315   -1.7702 C   0  0  0  0  0  0  0  0  0  0  0  0
   18.6490   -6.6334   -3.1027 C   0  0  0  0  0  0  0  0  0  0  0  0
   20.0894   -6.5877   -3.5855 C   0  0  0  0  0  0  0  0  0  0  0  0
   20.3663   -7.6920   -4.5833 C   0  0  1  0  0  0  0  0  0  0  0  0
   19.7883   -8.9110   -4.0071 N   0  0  0  0  0  0  0  0  0  0  0  0
   19.5780   -7.3784   -5.8360 C   0  0  0  0  0  0  0  0  0  0  0  0
   20.1347   -8.2140   -6.9601 C   0  0  0  0  0  0  0  0  0  0  0  0
   19.3044   -7.8944   -8.1922 C   0  0  1  0  0  0  0  0  0  0  0  0
   18.6333   -9.1252   -8.7399 C   0  0  0  0  0  1  0  0  0  0  0  0
   18.3022   -6.7960   -7.8977 C   0  0  0  0  0  3  0  0  0  0  0  0
   18.8764   -5.5617   -7.7354 O   0  0  0  0  0  0  0  0  0  0  0  0
   17.3179   -7.1783   -6.8378 C   0  0  1  0  0  0  0  0  0  0  0  0
   17.2373   -6.3215   -5.7390 O   0  0  0  0  0  0  0  0  0  0  0  0
   16.1155   -6.2673   -6.7150 C   0  0  1  0  0  0  0  0  0  0  0  0
   16.1324   -4.9175   -7.3974 C   0  0  1  0  0  0  0  0  0  0  0  0
   15.5595   -4.7086   -8.7300 C   0  0  0  0  0  0  0  0  0  0  0  0
   14.8930   -4.1151   -7.4820 C   0  0  1  0  0  0  0  0  0  0  0  0
   13.2765   -4.8237   -7.1129 S   0  0  0  0  0  0  0  0  0  0  0  0
   13.1584   -5.2456   -5.3553 C   0  0  0  0  0  1  0  0  0  0  0  0
  1  2  1  0
  2  3  1  0
  2  4  1  0
  4  5  1  0
  5  6  1  0
  6  7  1  0
  7  8  1  6
  7  9  1  0
  9 10  1  0
 10 11  1  0
 11 12  1  0
 12 13  1  1
 12 14  1  0
 14 15  1  0
 15 16  1  0
 16 17  1  1
 16 18  1  0
 18 19  1  0
 19 20  1  0
 20 21  1  1
 20 22  1  0
 22 23  1  0
 24 22  1  6
 24 25  1  0
 26 25  1  1
 26 27  1  0
 27 28  1  6
 28 29  1  0
 29 30  1  1
 30 31  1  0
 26 24  1  0
 29 27  1  0
M  RAD  4   9   2  21   2  22   2  31   2
M  END
>  <docking_score>  (3) 
0.83899999999999997

$$$$
