
     RDKit          3D

 20 21  0  0  0  0  0  0  0  0999 V2000
   13.4048   -0.1992   -4.6121 C   0  0  0  0  0  0  0  0  0  0  0  0
   14.1961   -1.4294   -4.9444 O   0  0  0  0  0  0  0  0  0  0  0  0
   15.5917   -1.5884   -4.4180 C   0  0  0  0  0  0  0  0  0  0  0  0
   16.7645   -1.4050   -5.3350 C   0  0  0  0  0  0  0  0  0  0  0  0
   18.1601   -1.5640   -4.8087 C   0  0  0  0  0  0  0  0  0  0  0  0
   18.3829   -1.9063   -3.3654 C   0  0  0  0  0  0  0  0  0  0  0  0
   17.2100   -2.0897   -2.4484 C   0  0  0  0  0  0  0  0  0  0  0  0
   15.8145   -1.9307   -2.9747 C   0  0  0  0  0  0  0  0  0  0  0  0
   16.9873   -1.7474   -3.8917 C   0  0  0  0  0  0  0  0  0  0  0  0
   18.4089   -1.6741   -4.3644 C   0  0  0  0  0  0  0  0  0  0  0  0
   19.3906   -0.7893   -3.6548 O   0  0  0  0  0  0  0  0  0  0  0  0
   17.7038   -2.0642   -2.6125 N   0  0  0  0  0  0  0  0  0  0  0  0
   17.6748   -3.4594   -2.0625 C   0  0  0  0  0  0  0  0  0  0  0  0
   18.6497   -4.4835   -2.5635 C   0  0  0  0  0  0  0  0  0  0  0  0
   20.0781   -4.4455   -2.1072 C   0  0  0  0  0  0  0  0  0  0  0  0
   18.1961   -5.5455   -3.5207 C   0  0  0  0  0  0  0  0  0  0  0  0
   17.0090   -5.3012   -4.4045 C   0  0  0  0  0  0  0  0  0  0  0  0
   15.8264   -6.2220   -4.3437 C   0  0  0  0  0  0  0  0  0  0  0  0
   14.6394   -5.9777   -5.2275 C   0  0  0  0  0  0  0  0  0  0  0  0
   18.9295   -6.8519   -3.5941 C   0  0  0  0  0  0  0  0  0  0  0  0
  1  2  1  0
  2  3  1  0
  3  4  2  0
  4  5  1  0
  5  6  2  0
  6  7  1  0
  7  8  2  0
  8  9  1  0
  9 10  1  0
 10 11  2  0
  9 12  1  0
 12 13  1  0
 13 14  1  0
 14 15  1  0
 14 16  1  0
 16 17  1  0
 17 18  2  3
 18 19  1  0
 16 20  1  0
  8  3  1  0
  9  4  1  0
M  END
>  <docking_score>  (1) 
-4.8209999999999997

$$$$

     RDKit          3D

 20 21  0  0  0  0  0  0  0  0999 V2000
   13.2963   -5.4446   -8.2082 C   0  0  0  0  0  0  0  0  0  0  0  0
   13.8863   -5.5411   -6.8325 O   0  0  0  0  0  0  0  0  0  0  0  0
   14.6605   -4.3879   -6.2658 C   0  0  0  0  0  0  0  0  0  0  0  0
   13.9934   -3.4246   -5.3293 C   0  0  0  0  0  0  0  0  0  0  0  0
   14.7676   -2.2716   -4.7627 C   0  0  0  0  0  0  0  0  0  0  0  0
   16.2088   -2.0818   -5.1326 C   0  0  0  0  0  0  0  0  0  0  0  0
   16.8758   -3.0451   -6.0691 C   0  0  0  0  0  0  0  0  0  0  0  0
   16.1017   -4.1982   -6.6358 C   0  0  0  0  0  0  0  0  0  0  0  0
   15.4346   -3.2349   -5.6992 C   0  0  0  0  0  0  0  0  0  0  0  0
   15.2452   -2.0645   -4.7804 C   0  0  0  0  0  0  0  0  0  0  0  0
   15.4137   -0.6676   -5.3005 O   0  0  0  0  0  0  0  0  0  0  0  0
   16.8101   -2.6386   -5.7500 N   0  0  0  0  0  0  0  0  0  0  0  0
   17.9801   -3.4047   -5.2078 C   0  0  0  0  0  0  0  0  0  0  0  0
   18.2726   -3.3853   -3.7366 C   0  0  0  0  0  0  0  0  0  0  0  0
   19.1234   -2.2952   -3.1555 C   0  0  0  0  0  0  0  0  0  0  0  0
   17.7143   -4.4560   -2.8469 C   0  0  0  0  0  0  0  0  0  0  0  0
   18.3934   -5.7907   -2.7624 C   0  0  0  0  0  0  0  0  0  0  0  0
   18.6418   -6.5862   -4.0097 C   0  0  0  0  0  0  0  0  0  0  0  0
   19.3209   -7.9209   -3.9252 C   0  0  0  0  0  0  0  0  0  0  0  0
   16.4767   -4.1919   -2.0415 C   0  0  0  0  0  0  0  0  0  0  0  0
  1  2  1  0
  2  3  1  0
  3  4  2  0
  4  5  1  0
  5  6  2  0
  6  7  1  0
  7  8  2  0
  8  9  1  0
  9 10  1  0
 10 11  2  0
  9 12  1  0
 12 13  1  0
 13 14  1  0
 14 15  1  0
 14 16  1  0
 16 17  1  0
 17 18  2  3
 18 19  1  0
 16 20  1  0
  8  3  1  0
  9  4  1  0
M  END
>  <docking_score>  (2) 
-4.3929999999999998

$$$$

     RDKit          3D

 20 21  0  0  0  0  0  0  0  0999 V2000
   20.0281   -3.6145   -1.6087 C   0  0  0  0  0  0  0  0  0  0  0  0
   20.1704   -4.6595   -2.6754 O   0  0  0  0  0  0  0  0  0  0  0  0
   19.0329   -4.9325   -3.6145 C   0  0  0  0  0  0  0  0  0  0  0  0
   17.8836   -5.7886   -3.1715 C   0  0  0  0  0  0  0  0  0  0  0  0
   16.7462   -6.0616   -4.1105 C   0  0  0  0  0  0  0  0  0  0  0  0
   16.7581   -5.4783   -5.4924 C   0  0  0  0  0  0  0  0  0  0  0  0
   17.9073   -4.6222   -5.9353 C   0  0  0  0  0  0  0  0  0  0  0  0
   19.0448   -4.3492   -4.9963 C   0  0  0  0  0  0  0  0  0  0  0  0
   17.8955   -5.2054   -4.5534 C   0  0  0  0  0  0  0  0  0  0  0  0
   16.5933   -5.9486   -4.5955 C   0  0  0  0  0  0  0  0  0  0  0  0
   16.5212   -7.2993   -5.2441 O   0  0  0  0  0  0  0  0  0  0  0  0
   17.4551   -4.8803   -5.9500 N   0  0  0  0  0  0  0  0  0  0  0  0
   16.1319   -4.2135   -6.1830 C   0  0  0  0  0  0  0  0  0  0  0  0
   16.0817   -2.7864   -6.6426 C   0  0  0  0  0  0  0  0  0  0  0  0
   16.3709   -2.4494   -8.0753 C   0  0  0  0  0  0  0  0  0  0  0  0
   15.7424   -1.6966   -5.6695 C   0  0  0  0  0  0  0  0  0  0  0  0
   16.4615   -1.6135   -4.3557 C   0  0  0  0  0  0  0  0  0  0  0  0
   16.0337   -2.4824   -3.2103 C   0  0  0  0  0  0  0  0  0  0  0  0
   16.7528   -2.3993   -1.8965 C   0  0  0  0  0  0  0  0  0  0  0  0
   14.6839   -0.6899   -6.0101 C   0  0  0  0  0  0  0  0  0  0  0  0
  1  2  1  0
  2  3  1  0
  3  4  2  0
  4  5  1  0
  5  6  2  0
  6  7  1  0
  7  8  2  0
  8  9  1  0
  9 10  1  0
 10 11  2  0
  9 12  1  0
 12 13  1  0
 13 14  1  0
 14 15  1  0
 14 16  1  0
 16 17  1  0
 17 18  2  3
 18 19  1  0
 16 20  1  0
  8  3  1  0
  9  4  1  0
M  END
>  <docking_score>  (3) 
-4.3819999999999997

$$$$
