
     RDKit          3D

 14 13  0  0  0  0  0  0  0  0999 V2000
   16.7208   -5.3114   -2.7633 O   0  0  0  0  0  0  0  0  0  0  0  0
   16.3932   -5.7849   -4.0320 C   0  0  0  0  0  0  0  0  0  0  0  0
   17.3616   -5.3374   -5.0899 C   0  0  0  0  0  3  0  0  0  0  0  0
   16.7388   -5.2270   -6.3941 N   0  0  0  0  0  0  0  0  0  0  0  0
   15.6357   -4.3767   -6.3167 C   0  0  2  0  0  0  0  0  0  0  0  0
   14.5806   -4.6632   -7.3648 C   0  0  0  0  0  0  0  0  0  0  0  0
   13.6656   -5.6203   -6.9275 O   0  0  0  0  0  0  0  0  0  0  0  0
   15.8069   -2.9112   -6.2018 C   0  0  1  0  0  0  0  0  0  0  0  0
   15.3500   -2.3289   -7.4574 O   0  0  0  0  0  0  0  0  0  0  0  0
   14.7450   -2.3632   -5.1964 C   0  0  2  0  0  0  0  0  0  0  0  0
   14.5020   -1.0144   -5.6600 O   0  0  0  0  0  0  0  0  0  0  0  0
   15.4882   -2.2093   -3.8686 C   0  0  0  0  0  0  0  0  0  0  0  0
   16.8570   -1.9423   -4.1538 O   0  0  0  0  0  0  0  0  0  0  0  0
   15.0005   -1.1428   -3.1085 O   0  0  0  0  0  0  0  0  0  0  0  0
  1  2  1  0
  2  3  1  0
  3  4  1  0
  4  5  1  0
  5  6  1  6
  6  7  1  0
  5  8  1  0
  8  9  1  6
  8 10  1  0
 10 11  1  6
 10 12  1  0
 12 13  1  0
 12 14  1  0
M  RAD  1   3   2
M  END
>  <docking_score>  (1) 
-3.0070000000000001

$$$$

     RDKit          3D

 14 13  0  0  0  0  0  0  0  0999 V2000
   17.3205   -7.9540   -6.9137 O   0  0  0  0  0  0  0  0  0  0  0  0
   16.8888   -6.7623   -6.3352 C   0  0  0  0  0  0  0  0  0  0  0  0
   16.2990   -6.9578   -4.9673 C   0  0  0  0  0  3  0  0  0  0  0  0
   15.7797   -5.7241   -4.4111 N   0  0  0  0  0  0  0  0  0  0  0  0
   16.8373   -4.9182   -3.9891 C   0  0  2  0  0  0  0  0  0  0  0  0
   17.2380   -5.1572   -2.5483 C   0  0  0  0  0  0  0  0  0  0  0  0
   17.0613   -4.0154   -1.7676 O   0  0  0  0  0  0  0  0  0  0  0  0
   16.8382   -3.4610   -4.2480 C   0  0  1  0  0  0  0  0  0  0  0  0
   18.0642   -3.1581   -4.9757 O   0  0  0  0  0  0  0  0  0  0  0  0
   15.7491   -3.1455   -5.3217 C   0  0  2  0  0  0  0  0  0  0  0  0
   16.4415   -2.3003   -6.2701 O   0  0  0  0  0  0  0  0  0  0  0  0
   14.7438   -2.2310   -4.6200 C   0  0  0  0  0  0  0  0  0  0  0  0
   15.3762   -1.6719   -3.4739 O   0  0  0  0  0  0  0  0  0  0  0  0
   14.3333   -1.1714   -5.4335 O   0  0  0  0  0  0  0  0  0  0  0  0
  1  2  1  0
  2  3  1  0
  3  4  1  0
  4  5  1  0
  5  6  1  1
  6  7  1  0
  5  8  1  0
  8  9  1  6
  8 10  1  0
 10 11  1  6
 10 12  1  0
 12 13  1  0
 12 14  1  0
M  RAD  1   3   2
M  END
>  <docking_score>  (2) 
-2.7410000000000001

$$$$

     RDKit          3D

 14 13  0  0  0  0  0  0  0  0999 V2000
   21.3018   -1.7784   -4.1145 O   0  0  0  0  0  0  0  0  0  0  0  0
   20.1244   -2.1527   -4.7586 C   0  0  0  0  0  0  0  0  0  0  0  0
   19.7087   -3.5614   -4.4425 C   0  0  0  0  0  3  0  0  0  0  0  0
   18.2980   -3.7866   -4.6879 N   0  0  0  0  0  0  0  0  0  0  0  0
   17.6871   -4.2488   -3.5221 C   0  0  2  0  0  0  0  0  0  0  0  0
   17.5423   -5.7557   -3.4756 C   0  0  0  0  0  0  0  0  0  0  0  0
   16.4130   -6.1870   -4.1706 O   0  0  0  0  0  0  0  0  0  0  0  0
   16.4381   -3.6348   -3.0187 C   0  0  1  0  0  0  0  0  0  0  0  0
   16.4748   -3.7251   -1.5644 O   0  0  0  0  0  0  0  0  0  0  0  0
   16.5179   -2.0910   -3.2400 C   0  0  2  0  0  0  0  0  0  0  0  0
   16.1087   -1.5432   -1.9649 O   0  0  0  0  0  0  0  0  0  0  0  0
   15.3801   -1.7628   -4.2079 C   0  0  0  0  0  0  0  0  0  0  0  0
   15.9423   -1.1496   -5.3630 O   0  0  0  0  0  0  0  0  0  0  0  0
   14.6957   -2.9062   -4.6288 O   0  0  0  0  0  0  0  0  0  0  0  0
  1  2  1  0
  2  3  1  0
  3  4  1  0
  4  5  1  0
  5  6  1  6
  6  7  1  0
  5  8  1  0
  8  9  1  1
  8 10  1  0
 10 11  1  1
 10 12  1  0
 12 13  1  0
 12 14  1  0
M  RAD  1   3   2
M  END
>  <docking_score>  (3) 
-2.6469999999999998

$$$$
