
     RDKit          3D

 69 69  0  0  0  0  0  0  0  0999 V2000
    5.6671   10.1198    6.0184 C   0  0  0  0  0  0  0  0  0  0  0  0
    6.5601   11.0762    6.0154 C   0  0  0  0  0  0  0  0  0  0  0  0
    6.0933   12.4696    6.2642 C   0  0  0  0  0  0  0  0  0  0  0  0
    8.0115   10.8766    5.7812 C   0  0  0  0  0  0  0  0  0  0  0  0
    8.5341   11.5876    4.5782 C   0  0  0  0  0  0  0  0  0  0  0  0
    7.7358   12.8432    4.2653 C   0  0  0  0  0  0  0  0  0  0  0  0
    8.1375   13.3673    2.8984 C   0  0  1  0  0  0  0  0  0  0  0  0
    8.5117   12.2362    1.9673 C   0  0  0  0  0  0  0  0  0  0  0  0
    6.9774   14.1732    2.3567 C   0  0  2  0  0  0  0  0  0  0  0  0
    6.2680   14.9234    3.4784 C   0  0  0  0  0  2  0  0  0  0  0  0
    5.9685   13.2954    1.6475 C   0  0  0  0  0  3  0  0  0  0  0  0
    5.1066   12.5219    2.6199 C   0  0  0  0  0  3  0  0  0  0  0  0
    3.7844   13.1821    2.8674 C   0  0  0  0  0  0  0  0  0  0  0  0
    2.8110   12.1082    3.3392 C   0  0  2  0  0  0  0  0  0  0  0  0
    2.7415   12.1289    4.8712 C   0  0  0  0  0  0  0  0  0  0  0  0
    3.4591   13.3741    5.3359 C   0  0  0  0  0  3  0  0  0  0  0  0
    2.4704   14.5324    5.1466 C   0  0  0  0  0  3  0  0  0  0  0  0
    2.8384   15.5351    6.2725 C   0  0  2  0  0  0  0  0  0  0  0  0
    4.3756   15.7255    6.1688 C   0  0  0  0  0  0  0  0  0  0  0  0
    2.5383   14.9180    7.5885 C   0  0  0  0  0  0  0  0  0  0  0  0
    3.1577   15.4983    8.7457 C   0  0  0  0  0  0  0  0  0  0  0  0
    3.4599   14.8059    9.9825 C   0  0  0  0  0  3  0  0  0  0  0  0
    4.8530   14.2558   10.0310 C   0  0  0  0  0  3  0  0  0  0  0  0
    5.6506   14.8432   11.1752 C   0  0  0  0  0  0  0  0  0  0  0  0
    3.3482   10.7227    2.9993 C   0  0  2  0  0  0  0  0  0  0  0  0
    2.2894    9.6873    2.8530 C   0  0  0  0  0  0  0  0  0  0  0  0
    2.8714    8.4251    2.2810 C   0  0  0  0  0  0  0  0  0  0  0  0
    2.2761    7.1618    2.7862 C   0  0  0  0  0  0  0  0  0  0  0  0
    3.1996    5.9875    2.8271 C   0  0  0  0  0  2  0  0  0  0  0  0
    4.4023   10.3281    4.0266 C   0  0  0  0  0  0  0  0  0  0  0  0
    5.2544    9.2591    3.4299 C   0  0  0  0  0  0  0  0  0  0  0  0
    5.7249    8.2173    4.3928 C   0  0  2  0  0  0  0  0  0  0  0  0
    4.9119    6.9436    4.3186 C   0  0  0  0  0  0  0  0  0  0  0  0
    5.9357    8.6883    5.7931 C   0  0  2  0  0  0  0  0  0  0  0  0
    4.9528    7.9102    6.6783 C   0  0  0  0  0  2  0  0  0  0  0  0
    7.3258    8.2824    6.2265 C   0  0  0  0  0  0  0  0  0  0  0  0
    8.3256    9.3981    6.0323 C   0  0  0  0  0  0  0  0  0  0  0  0
    9.6770    9.0732    6.6247 C   0  0  0  0  0  0  0  0  0  0  0  0
    9.6045    9.3377    8.1141 C   0  0  0  0  0  3  0  0  0  0  0  0
   10.8492   10.0501    8.6054 C   0  0  1  0  0  0  0  0  0  0  0  0
   11.1227   11.2993    7.7931 C   0  0  0  0  0  2  0  0  0  0  0  0
   10.7511   10.3662   10.0847 C   0  0  0  0  0  0  0  0  0  0  0  0
   11.6263   11.5669   10.3669 C   0  0  1  0  0  0  0  0  0  0  0  0
   10.8091   12.7074   10.9468 C   0  0  0  0  0  2  0  0  0  0  0  0
   12.7557   11.2810   11.3016 C   0  0  0  0  0  0  0  0  0  0  0  0
   12.9207   12.2732   12.4033 C   0  0  1  0  0  0  0  0  0  0  0  0
   12.2253   13.5825   12.1883 C   0  0  0  0  0  0  0  0  0  0  0  0
   12.5743   11.6341   13.7233 C   0  0  0  0  0  0  0  0  0  0  0  0
   11.1227   11.8670   14.0830 C   0  0  0  0  0  2  0  0  0  0  0  0
   13.4058   12.2597   14.8280 C   0  0  0  0  0  2  0  0  0  0  0  0
   12.8046   10.1545   13.6164 C   0  0  0  0  0  0  0  0  0  0  0  0
   13.2685    9.6401   14.9625 C   0  0  0  0  0  0  0  0  0  0  0  0
   13.2665    8.1427   15.0111 C   0  0  0  0  0  3  0  0  0  0  0  0
   14.6855    7.6293   14.8286 C   0  0  0  0  0  0  0  0  0  0  0  0
   14.5139    6.2066   14.2510 C   0  0  1  0  0  0  0  0  0  0  0  0
   14.2136    6.3925   12.7244 C   0  0  0  0  0  0  0  0  0  0  0  0
   13.2851    5.2542   12.3604 C   0  0  0  0  0  3  0  0  0  0  0  0
   13.9418    4.4144   11.2769 C   0  0  0  0  0  0  0  0  0  0  0  0
   13.3421    3.0320   11.2158 C   0  0  0  0  0  0  0  0  0  0  0  0
   14.3070    2.1195   10.4571 C   0  0  0  0  0  3  0  0  0  0  0  0
   15.4042    2.9397    9.8137 C   0  0  0  0  0  2  0  0  0  0  0  0
   15.9528    5.5754   14.2470 C   0  0  0  0  0  0  0  0  0  0  0  0
   15.8864    4.1483   13.8394 C   0  0  1  0  0  0  0  0  0  0  0  0
   14.5968    3.5999   14.5099 C   0  0  0  0  0  2  0  0  0  0  0  0
   15.5658    4.0281   12.3381 C   0  0  0  0  0  0  0  0  0  0  0  0
   16.9537    3.2137   14.1480 C   0  0  1  0  0  0  0  0  0  0  0  0
   17.0266    2.6198   15.5094 C   0  0  0  0  0  2  0  0  0  0  0  0
   17.0167    2.1018   13.1291 C   0  0  0  0  0  0  0  0  0  0  0  0
   18.3005    1.3423   13.1234 C   0  0  0  0  0  2  0  0  0  0  0  0
  1  2  2  3
  2  3  1  0
  2  4  1  0
  4  5  1  0
  5  6  1  0
  6  7  1  0
  7  8  1  6
  7  9  1  0
  9 10  1  1
  9 11  1  0
 11 12  1  0
 12 13  1  0
 13 14  1  0
 14 15  1  1
 15 16  1  0
 16 17  1  0
 17 18  1  0
 18 19  1  1
 18 20  1  0
 20 21  1  0
 21 22  1  0
 22 23  1  0
 23 24  1  0
 14 25  1  0
 25 26  1  1
 26 27  1  0
 27 28  1  0
 28 29  1  0
 25 30  1  0
 30 31  1  0
 31 32  1  0
 32 33  1  1
 32 34  1  0
 34 35  1  1
 34 36  1  0
 36 37  1  0
 37 38  1  0
 38 39  1  0
 39 40  1  0
 40 41  1  6
 40 42  1  0
 42 43  1  0
 43 44  1  1
 43 45  1  0
 45 46  1  0
 46 47  1  6
 46 48  1  0
 48 49  1  0
 48 50  1  0
 48 51  1  0
 51 52  1  0
 52 53  1  0
 53 54  1  0
 55 54  1  1
 55 56  1  0
 56 57  1  0
 57 58  1  0
 58 59  1  0
 59 60  1  0
 60 61  1  0
 55 62  1  0
 62 63  1  0
 63 64  1  1
 63 65  1  0
 63 66  1  0
 66 67  1  1
 66 68  1  0
 68 69  1  0
 34  1  1  0
M  RAD  8  10   3  11   2  12   2  16   2  17   2  22   2  23   2  29   3
M  RAD  8  35   3  39   2  41   3  44   3  49   3  50   3  53   2  57   2
M  RAD  5  60   2  61   3  64   3  67   3  69   3
M  END
>  <docking_score>  (1) 
50.258000000000003

$$$$

     RDKit          3D

 69 69  0  0  0  0  0  0  0  0999 V2000
    8.9712   10.5015    6.7550 C   0  0  0  0  0  0  0  0  0  0  0  0
    9.3104   11.6547    7.2719 C   0  0  0  0  0  0  0  0  0  0  0  0
    8.2622   12.7089    7.3780 C   0  0  0  0  0  0  0  0  0  0  0  0
   10.6685   11.9940    7.7634 C   0  0  0  0  0  0  0  0  0  0  0  0
   11.3094   13.1286    7.0369 C   0  0  0  0  0  0  0  0  0  0  0  0
   10.2833   14.1034    6.4815 C   0  0  0  0  0  0  0  0  0  0  0  0
   10.9703   15.0738    5.5376 C   0  0  1  0  0  0  0  0  0  0  0  0
   12.1231   14.4120    4.8168 C   0  0  0  0  0  0  0  0  0  0  0  0
    9.9284   15.5863    4.5678 C   0  0  2  0  0  0  0  0  0  0  0  0
    8.5778   15.7445    5.2570 C   0  0  0  0  0  2  0  0  0  0  0  0
    9.7619   14.6591    3.3831 C   0  0  0  0  0  3  0  0  0  0  0  0
    8.9675   13.4222    3.7377 C   0  0  0  0  0  3  0  0  0  0  0  0
    7.5220   13.5394    3.3605 C   0  0  0  0  0  0  0  0  0  0  0  0
    6.9686   12.1282    3.2006 C   0  0  2  0  0  0  0  0  0  0  0  0
    6.2614   11.7143    4.4972 C   0  0  0  0  0  0  0  0  0  0  0  0
    4.8370   11.3625    4.1384 C   0  0  0  0  0  3  0  0  0  0  0  0
    4.4653   12.2518    2.9443 C   0  0  0  0  0  3  0  0  0  0  0  0
    3.2547   11.5305    2.2943 C   0  0  2  0  0  0  0  0  0  0  0  0
    2.2575   11.2708    3.4555 C   0  0  0  0  0  0  0  0  0  0  0  0
    3.6994   10.2166    1.7664 C   0  0  0  0  0  0  0  0  0  0  0  0
    3.4076    9.9250    0.3919 C   0  0  0  0  0  0  0  0  0  0  0  0
    4.3858    9.7311   -0.6597 C   0  0  0  0  0  3  0  0  0  0  0  0
    4.2502    8.4144   -1.3624 C   0  0  0  0  0  3  0  0  0  0  0  0
    2.8650    8.2259   -1.9423 C   0  0  0  0  0  0  0  0  0  0  0  0
    8.1090   11.1279    3.0508 C   0  0  2  0  0  0  0  0  0  0  0  0
    7.7298    9.8904    2.3163 C   0  0  0  0  0  0  0  0  0  0  0  0
    7.7841   10.1283    0.8333 C   0  0  0  0  0  0  0  0  0  0  0  0
    7.2818   11.4504    0.3802 C   0  0  0  0  0  0  0  0  0  0  0  0
    8.2121   12.5999    0.5967 C   0  0  0  0  0  2  0  0  0  0  0  0
    8.6944   10.8259    4.4250 C   0  0  0  0  0  0  0  0  0  0  0  0
   10.0701   10.2819    4.2339 C   0  0  0  0  0  0  0  0  0  0  0  0
   10.4708    9.2240    5.2107 C   0  0  2  0  0  0  0  0  0  0  0  0
   10.3575    7.8279    4.6388 C   0  0  0  0  0  0  0  0  0  0  0  0
    9.8640    9.3437    6.5689 C   0  0  2  0  0  0  0  0  0  0  0  0
    9.0096    8.0879    6.7882 C   0  0  0  0  0  2  0  0  0  0  0  0
   10.9761    9.2969    7.5917 C   0  0  0  0  0  0  0  0  0  0  0  0
   11.4919   10.6764    7.9278 C   0  0  0  0  0  0  0  0  0  0  0  0
   11.5108   10.9400    9.4154 C   0  0  0  0  0  0  0  0  0  0  0  0
   12.8558   11.5446    9.7605 C   0  0  0  0  0  3  0  0  0  0  0  0
   12.7565   12.4442   10.9766 C   0  0  1  0  0  0  0  0  0  0  0  0
   13.6136   11.9261   12.1134 C   0  0  0  0  0  2  0  0  0  0  0  0
   13.1111   13.8763   10.6288 C   0  0  0  0  0  0  0  0  0  0  0  0
   13.4454   14.6021   11.9128 C   0  0  1  0  0  0  0  0  0  0  0  0
   14.3534   15.7884   11.6429 C   0  0  0  0  0  2  0  0  0  0  0  0
   12.2460   15.0931   12.6553 C   0  0  0  0  0  0  0  0  0  0  0  0
   10.9485   14.5182   12.1954 C   0  0  1  0  0  0  0  0  0  0  0  0
   10.9378   14.0261   10.7806 C   0  0  0  0  0  0  0  0  0  0  0  0
   10.4697   13.4835   13.1807 C   0  0  0  0  0  0  0  0  0  0  0  0
    9.7565   14.1266   14.3506 C   0  0  0  0  0  2  0  0  0  0  0  0
   11.6584   12.7319   13.7510 C   0  0  0  0  0  2  0  0  0  0  0  0
    9.5066   12.5660   12.4847 C   0  0  0  0  0  0  0  0  0  0  0  0
    8.1276   13.1890   12.5314 C   0  0  0  0  0  0  0  0  0  0  0  0
    7.2607   12.6936   11.4144 C   0  0  0  0  0  3  0  0  0  0  0  0
    5.8366   12.5227   11.9176 C   0  0  0  0  0  0  0  0  0  0  0  0
    5.6026   10.9956   11.9136 C   0  0  1  0  0  0  0  0  0  0  0  0
    5.1283   10.6265   13.3607 C   0  0  0  0  0  0  0  0  0  0  0  0
    3.6372   10.3962   13.2438 C   0  0  0  0  0  3  0  0  0  0  0  0
    3.1442    9.7265   14.5162 C   0  0  0  0  0  0  0  0  0  0  0  0
    4.1600    9.8410   15.6249 C   0  0  0  0  0  0  0  0  0  0  0  0
    3.4359   10.2714   16.9016 C   0  0  0  0  0  3  0  0  0  0  0  0
    3.0100   11.7199   16.7969 C   0  0  0  0  0  2  0  0  0  0  0  0
    4.3060   10.7687   11.0555 C   0  0  0  0  0  0  0  0  0  0  0  0
    4.5201    9.6663   10.0829 C   0  0  1  0  0  0  0  0  0  0  0  0
    4.7674   10.3747    8.7227 C   0  0  0  0  0  2  0  0  0  0  0  0
    5.8640    8.9631   10.3485 C   0  0  0  0  0  0  0  0  0  0  0  0
    3.5154    8.6442    9.8510 C   0  0  1  0  0  0  0  0  0  0  0  0
    3.9494    7.2429    9.6071 C   0  0  0  0  0  2  0  0  0  0  0  0
    2.4726    8.6467   10.9422 C   0  0  0  0  0  0  0  0  0  0  0  0
    3.0278    8.6054   12.3260 C   0  0  0  0  0  2  0  0  0  0  0  0
  1  2  2  3
  2  3  1  0
  2  4  1  0
  4  5  1  0
  5  6  1  0
  6  7  1  0
  7  8  1  6
  7  9  1  0
  9 10  1  1
  9 11  1  0
 11 12  1  0
 12 13  1  0
 13 14  1  0
 14 15  1  1
 15 16  1  0
 16 17  1  0
 17 18  1  0
 18 19  1  1
 18 20  1  0
 20 21  1  0
 21 22  1  0
 22 23  1  0
 23 24  1  0
 14 25  1  0
 25 26  1  1
 26 27  1  0
 27 28  1  0
 28 29  1  0
 25 30  1  0
 30 31  1  0
 31 32  1  0
 32 33  1  6
 32 34  1  0
 34 35  1  1
 34 36  1  0
 36 37  1  0
 37 38  1  0
 38 39  1  0
 39 40  1  0
 40 41  1  1
 40 42  1  0
 42 43  1  0
 43 44  1  6
 43 45  1  0
 45 46  1  0
 46 47  1  6
 46 48  1  0
 48 49  1  0
 48 50  1  0
 48 51  1  0
 51 52  1  0
 52 53  1  0
 53 54  1  0
 55 54  1  1
 55 56  1  0
 56 57  1  0
 57 58  1  0
 58 59  1  0
 59 60  1  0
 60 61  1  0
 55 62  1  0
 62 63  1  0
 63 64  1  6
 63 65  1  0
 63 66  1  0
 66 67  1  1
 66 68  1  0
 68 69  1  0
 34  1  1  0
M  RAD  8  10   3  11   2  12   2  16   2  17   2  22   2  23   2  29   3
M  RAD  8  35   3  39   2  41   3  44   3  49   3  50   3  53   2  57   2
M  RAD  5  60   2  61   3  64   3  67   3  69   3
M  END
>  <docking_score>  (2) 
51.954000000000001

$$$$
