
     RDKit          3D

 61 64  0  0  0  0  0  0  0  0999 V2000
    5.1095    9.0308    5.2528 C   0  0  1  0  0  0  0  0  0  0  0  0
    4.7603    9.1469    6.7132 C   0  0  2  0  0  0  0  0  0  0  0  0
    4.3278    7.7666    7.2025 C   0  0  0  0  0  0  0  0  0  0  0  0
    3.6639   10.1624    6.9500 C   0  0  0  0  0  0  0  0  0  0  0  0
    3.7807   10.6510    8.3847 C   0  0  0  0  0  0  0  0  0  0  0  0
    4.8305   11.7492    8.3931 C   0  0  1  0  0  0  0  0  0  0  0  0
    4.3108   12.9916    7.6997 C   0  0  1  0  0  0  0  0  0  0  0  0
    2.7816   12.8650    7.6719 C   0  0  0  0  0  0  0  0  0  0  0  0
    4.6755   14.2314    8.4765 C   0  0  0  0  0  3  0  0  0  0  0  0
    4.2032   15.4387    7.6941 C   0  0  0  0  0  0  0  0  0  0  0  0
    3.0608   15.0788    6.7781 C   0  0  0  0  0  0  0  0  0  0  0  0
    3.4140   15.3556    5.3459 C   0  0  2  0  0  0  0  0  0  0  0  0
    2.2620   16.0661    4.6653 C   0  0  0  0  0  0  0  0  0  0  0  0
    2.2649   15.6899    3.1783 C   0  0  0  0  0  3  0  0  0  0  0  0
    3.6501   15.9397    2.6098 C   0  0  0  0  0  0  0  0  0  0  0  0
    3.7520   14.0436    4.6534 C   0  0  0  0  0  0  0  0  0  0  0  0
    4.8430   14.2058    3.6507 C   0  0  1  0  0  0  0  0  0  0  0  0
    5.2259   15.6248    3.3771 C   0  0  0  0  0  0  0  0  0  0  0  0
    6.0101   13.2874    3.8739 C   0  0  0  0  0  0  0  0  0  0  0  0
    5.8633   12.0209    3.0128 C   0  0  2  0  0  0  0  0  0  0  0  0
    4.9684   12.4316    1.8572 C   0  0  0  0  0  0  0  0  0  0  0  0
    5.2107   11.6727    0.6070 C   0  0  0  0  0  0  0  0  0  0  0  0
    5.2117   10.2122    0.6895 C   0  0  0  0  0  3  0  0  0  0  0  0
    5.0949    9.5914    2.0227 C   0  0  1  0  0  0  0  0  0  0  0  0
    4.3480   10.2499    2.9528 O   0  0  0  0  0  0  0  0  0  0  0  0
    4.5509    8.1867    1.8747 C   0  0  0  0  0  0  0  0  0  0  0  0
    4.4402    7.4732    3.1961 C   0  0  0  0  0  3  0  0  0  0  0  0
    3.3301    6.4362    3.1764 C   0  0  0  0  0  0  0  0  0  0  0  0
    5.0761   11.0440    3.8332 C   0  0  1  0  0  0  0  0  0  0  0  0
    5.8450   10.2923    4.8487 C   0  0  2  0  0  0  0  0  0  0  0  0
    7.2387    9.9189    4.4806 C   0  0  1  0  0  0  0  0  0  0  0  0
    7.6638   10.3780    3.1176 C   0  0  0  0  0  0  0  0  0  0  0  0
    7.9608   11.8598    3.1814 C   0  0  0  0  0  0  0  0  0  0  0  0
    9.1161   12.2513    2.2566 C   0  0  0  0  0  0  0  0  0  0  0  0
    8.2160   10.4193    5.5469 C   0  0  1  0  0  0  0  0  0  0  0  0
    7.6503   10.0834    6.9088 C   0  0  0  0  0  0  0  0  0  0  0  0
    7.0841    8.6997    6.9950 C   0  0  0  0  0  3  0  0  0  0  0  0
    7.1665    7.9664    5.7708 N   0  0  0  0  0  0  0  0  0  0  0  0
    5.9581    7.8577    5.1032 N   0  0  0  0  0  2  0  0  0  0  0  0
    9.5652    9.7993    5.4263 C   0  0  0  0  0  0  0  0  0  0  0  0
    9.8973    8.8750    6.5752 C   0  0  1  0  0  0  0  0  0  0  0  0
   10.7456    7.7159    6.0754 C   0  0  0  0  0  2  0  0  0  0  0  0
   10.6002    9.6432    7.6840 C   0  0  0  0  0  0  0  0  0  0  0  0
    9.7277    9.7537    8.8923 C   0  0  0  0  0  0  0  0  0  0  0  0
   10.5451    9.4759   10.1202 C   0  0  1  0  0  0  0  0  0  0  0  0
   11.8387   10.2849   10.1365 C   0  0  0  0  0  0  0  0  0  0  0  0
   11.9498   10.9908   11.4152 N   0  0  0  0  0  0  0  0  0  0  0  0
   13.1116   10.4721   12.1108 C   0  0  0  0  0  0  0  0  0  0  0  0
   12.7505    9.6996   13.3558 C   0  0  0  0  0  2  0  0  0  0  0  0
    9.7599    9.6131   11.3877 C   0  0  0  0  0  0  0  0  0  0  0  0
    8.2619    9.6663   11.1595 C   0  0  0  0  0  3  0  0  0  0  0  0
    7.7851   11.0048   11.6192 C   0  0  0  0  0  0  0  0  0  0  0  0
    6.2936   11.1188   11.7044 C   0  0  2  0  0  0  0  0  0  0  0  0
    5.6704   10.3974   12.8394 C   0  0  0  0  0  0  0  0  0  0  0  0
    4.2203   10.8160   12.9897 C   0  0  0  0  0  0  0  0  0  0  0  0
    4.0593   11.3077   14.3528 N   0  0  0  0  0  0  0  0  0  0  0  0
    5.5731   10.7997   10.4241 C   0  0  0  0  0  0  0  0  0  0  0  0
    5.2651   12.0500    9.7462 N   0  0  0  0  0  0  0  0  0  0  0  0
    4.3031   12.8535   10.4556 C   0  0  0  0  0  0  0  0  0  0  0  0
    4.9083   13.7648   11.4863 C   0  0  0  0  0  0  0  0  0  0  0  0
    6.2536   14.2878   11.1232 C   0  0  0  0  0  2  0  0  0  0  0  0
  1  2  1  0
  2  3  1  6
  2  4  1  0
  4  5  1  0
  5  6  1  0
  6  7  1  0
  7  8  1  1
  7  9  1  0
  9 10  1  0
 10 11  1  0
 11 12  1  0
 12 13  1  6
 13 14  1  0
 14 15  1  0
 12 16  1  0
 16 17  1  0
 17 18  1  1
 17 19  1  0
 20 19  1  1
 20 21  1  0
 21 22  1  0
 22 23  1  0
 23 24  1  0
 24 25  1  0
 24 26  1  6
 26 27  1  0
 27 28  1  0
 20 29  1  0
 30 29  1  6
 30 31  1  0
 31 32  1  6
 32 33  1  0
 33 34  1  0
 31 35  1  0
 35 36  1  1
 36 37  1  0
 37 38  1  0
 38 39  1  0
 35 40  1  0
 40 41  1  0
 41 42  1  6
 41 43  1  0
 43 44  1  0
 44 45  1  0
 45 46  1  1
 46 47  1  0
 47 48  1  0
 48 49  1  0
 45 50  1  0
 50 51  1  0
 51 52  1  0
 52 53  1  0
 53 54  1  1
 54 55  1  0
 55 56  1  0
 53 57  1  0
 57 58  1  0
 58 59  1  0
 59 60  1  0
 60 61  1  0
 30  1  1  0
  1 39  1  1
  6 58  1  1
 29 25  1  6
M  RAD  8   9   2  14   2  23   2  27   2  37   2  39   3  42   3  49   3
M  CHG  1  39   1
M  RAD  2  51   2  61   3
M  END
>  <docking_score>  (1) 
49.829999999999998

$$$$
