
     RDKit          3D

 42 43  0  0  0  0  0  0  0  0999 V2000
    4.6160    3.7072   -5.9234 O   0  0  0  0  0  0  0  0  0  0  0  0
    5.7849    3.3827   -6.1753 N   0  0  0  0  0  4  0  0  0  0  0  0
    6.3176    3.6966   -7.3932 O   0  0  0  0  0  0  0  0  0  0  0  0
    6.5603    2.6935   -5.2105 C   0  0  0  0  0  0  0  0  0  0  0  0
    6.6538    1.3800   -5.2606 C   0  0  0  0  0  0  0  0  0  0  0  0
    5.9709    0.6533   -6.2909 C   0  0  0  0  0  0  0  0  0  0  0  0
    6.1658   -0.6185   -6.5737 C   0  0  0  0  0  0  0  0  0  0  0  0
    7.1728   -1.3301   -5.7496 C   0  0  2  0  0  0  0  0  0  0  0  0
    6.5215   -1.8224   -4.4626 C   0  0  0  0  0  2  0  0  0  0  0  0
    8.2925   -0.3569   -5.4669 C   0  0  0  0  0  3  0  0  0  0  0  0
    9.2762   -0.9029   -4.4614 C   0  0  0  0  0  3  0  0  0  0  0  0
   10.0626   -2.0039   -5.1444 C   0  0  0  0  0  3  0  0  0  0  0  0
   11.1795   -2.5206   -4.2975 C   0  0  0  0  0  3  0  0  0  0  0  0
   12.7594   -2.1840   -5.1070 S   0  0  0  0  0  0  0  0  0  0  0  0
   13.8032   -3.6912   -5.1369 C   0  0  1  0  0  0  0  0  0  0  0  0
   13.2141   -4.5885   -6.1144 N   0  0  0  0  0  0  0  0  0  0  0  0
   15.1679   -3.3037   -5.6698 C   0  0  2  0  0  0  0  0  0  0  0  0
   16.1562   -4.3046   -5.1229 C   0  0  2  0  0  0  0  0  0  0  0  0
   15.5941   -5.4877   -4.7192 O   0  0  0  0  0  0  0  0  0  0  0  0
   16.9540   -3.6269   -4.0370 C   0  0  1  0  0  0  0  0  0  0  0  0
   18.3187   -4.2471   -3.8604 C   0  0  0  0  0  0  0  0  0  0  0  0
   17.0335   -2.1347   -4.2385 C   0  0  0  0  0  3  0  0  0  0  0  0
   17.9550   -1.5790   -3.1733 C   0  0  0  0  0  3  0  0  0  0  0  0
   17.3552   -1.7959   -1.7823 C   0  0  0  0  0  0  0  0  0  0  0  0
   17.5336   -3.2395   -1.3476 C   0  0  0  0  0  0  0  0  0  0  0  0
   18.4025   -4.2425   -1.9040 S   0  0  2  0  0  0  0  0  0  0  0  0
   20.5081   -3.0841   -1.9760 S   0  0  0  0  0  0  0  0  0  0  0  0
   21.2757   -4.5077   -1.1540 C   0  0  0  0  0  2  0  0  0  0  0  0
   15.4179   -2.0082   -5.2924 O   0  0  0  0  0  0  0  0  0  0  0  0
   16.5636   -1.4594   -5.8079 C   0  0  0  0  0  3  0  0  0  0  0  0
   16.7772   -1.8321   -7.1318 O   0  0  0  0  0  0  0  0  0  0  0  0
   17.9935   -2.5231   -7.1992 C   0  0  1  0  0  0  0  0  0  0  0  0
   17.9165   -3.5349   -8.1610 O   0  0  0  0  0  0  0  0  0  0  0  0
   19.1178   -1.6139   -7.5041 C   0  0  0  0  0  0  0  0  0  0  0  0
   19.7859   -1.7614   -8.7033 O   0  0  0  0  0  1  0  0  0  0  0  0
   19.4874   -0.7157   -6.7173 O   0  0  0  0  0  0  0  0  0  0  0  0
    5.1932   -1.3033   -7.9046 S   0  0  0  0  0  0  0  0  0  0  0  0
    4.7248   -2.9900   -7.4228 C   0  0  0  0  0  3  0  0  0  0  0  0
    5.9417   -3.8947   -7.3229 C   0  0  1  0  0  0  0  0  0  0  0  0
    6.7896   -3.5254   -6.1169 C   0  0  0  0  0  0  0  0  0  0  0  0
    7.6547   -2.4680   -6.3996 O   0  0  0  0  0  0  0  0  0  0  0  0
    5.4381   -5.1943   -7.1159 O   0  0  0  0  0  1  0  0  0  0  0  0
  1  2  2  0
  2  3  1  0
  2  4  1  0
  4  5  2  3
  5  6  1  0
  6  7  2  3
  7  8  1  0
  8  9  1  1
  8 10  1  0
 10 11  1  0
 11 12  1  0
 12 13  1  0
 13 14  1  0
 14 15  1  0
 15 16  1  6
 15 17  1  0
 17 18  1  0
 18 19  1  1
 18 20  1  0
 20 21  1  6
 20 22  1  0
 22 23  1  0
 23 24  1  0
 24 25  1  0
 25 26  1  0
 26 27  1  6
 27 28  1  0
 17 29  1  1
 29 30  1  0
 30 31  1  0
 31 32  1  0
 32 33  1  6
 32 34  1  0
 34 35  1  0
 34 36  2  0
  7 37  1  0
 37 38  1  0
 38 39  1  0
 39 40  1  0
 40 41  1  0
 39 42  1  1
 41  8  1  0
 26 21  1  0
M  RAD  8   9   3  10   2  11   2  12   2  13   2  22   2  23   2  28   3
M  CHG  3   2   1  35  -1  42  -1
M  RAD  2  30   2  38   2
M  END
>  <docking_score>  (1) 
11.605

$$$$

     RDKit          3D

 42 43  0  0  0  0  0  0  0  0999 V2000
   15.3380   -0.6588   -1.3397 O   0  0  0  0  0  0  0  0  0  0  0  0
   15.2132   -1.5080   -0.4462 N   0  0  0  0  0  4  0  0  0  0  0  0
   14.9246   -1.1019    0.8256 O   0  0  0  0  0  0  0  0  0  0  0  0
   15.3683   -2.8851   -0.7406 C   0  0  0  0  0  0  0  0  0  0  0  0
   16.5678   -3.4301   -0.7162 C   0  0  0  0  0  0  0  0  0  0  0  0
   17.7113   -2.6281   -0.3918 C   0  0  0  0  0  0  0  0  0  0  0  0
   18.6421   -2.2593   -1.2478 C   0  0  0  0  0  0  0  0  0  0  0  0
   18.4716   -2.7214   -2.6467 C   0  0  2  0  0  0  0  0  0  0  0  0
   17.5516   -1.7613   -3.3914 C   0  0  0  0  0  2  0  0  0  0  0  0
   17.8919   -4.1149   -2.5931 C   0  0  0  0  0  3  0  0  0  0  0  0
   17.0168   -4.4099   -3.7865 C   0  0  0  0  0  3  0  0  0  0  0  0
   17.9093   -4.4336   -5.0114 C   0  0  0  0  0  3  0  0  0  0  0  0
   18.1939   -3.0656   -5.5397 C   0  0  0  0  0  3  0  0  0  0  0  0
   18.9737   -3.1938   -7.1645 S   0  0  0  0  0  0  0  0  0  0  0  0
   18.2400   -4.5720   -8.1256 C   0  0  1  0  0  0  0  0  0  0  0  0
   18.7902   -5.8005   -7.5817 N   0  0  0  0  0  0  0  0  0  0  0  0
   16.7517   -4.5993   -7.8414 C   0  0  2  0  0  0  0  0  0  0  0  0
   16.3097   -6.0391   -7.9383 C   0  0  2  0  0  0  0  0  0  0  0  0
   15.2586   -6.3615   -7.1198 O   0  0  0  0  0  0  0  0  0  0  0  0
   17.5191   -6.9139   -7.7216 C   0  0  1  0  0  0  0  0  0  0  0  0
   17.1598   -8.3786   -7.6603 C   0  0  0  0  0  0  0  0  0  0  0  0
   18.6053   -6.6405   -8.7310 C   0  0  0  0  0  3  0  0  0  0  0  0
   19.7075   -7.6528   -8.5006 C   0  0  0  0  0  3  0  0  0  0  0  0
   20.3385   -7.4506   -7.1213 C   0  0  0  0  0  0  0  0  0  0  0  0
   19.4361   -8.0139   -6.0381 C   0  0  0  0  0  0  0  0  0  0  0  0
   18.3218   -8.9136   -6.1777 S   0  0  2  0  0  0  0  0  0  0  0  0
   19.2696  -10.6650   -7.5249 S   0  0  0  0  0  0  0  0  0  0  0  0
   19.8512   -9.4016   -8.6897 C   0  0  0  0  0  2  0  0  0  0  0  0
   16.1338   -3.7637   -8.7375 O   0  0  0  0  0  0  0  0  0  0  0  0
   15.4619   -2.7051   -8.1830 C   0  0  0  0  0  3  0  0  0  0  0  0
   15.4278   -2.7720   -6.7933 O   0  0  0  0  0  0  0  0  0  0  0  0
   14.9321   -1.5544   -6.3104 C   0  0  1  0  0  0  0  0  0  0  0  0
   14.1417   -0.9389   -7.2858 O   0  0  0  0  0  0  0  0  0  0  0  0
   14.1556   -1.7397   -5.0669 C   0  0  0  0  0  0  0  0  0  0  0  0
   13.1000   -0.8880   -4.8089 O   0  0  0  0  0  1  0  0  0  0  0  0
   14.4180   -2.6387   -4.2391 O   0  0  0  0  0  0  0  0  0  0  0  0
   19.9731   -1.2585   -0.6050 S   0  0  0  0  0  0  0  0  0  0  0  0
   20.3805   -0.0199   -1.8684 C   0  0  0  0  0  3  0  0  0  0  0  0
   20.9499   -0.6711   -3.1179 C   0  0  1  0  0  0  0  0  0  0  0  0
   19.8702   -1.4346   -3.8669 C   0  0  0  0  0  0  0  0  0  0  0  0
   19.6834   -2.7129   -3.3401 O   0  0  0  0  0  0  0  0  0  0  0  0
   21.3805    0.3884   -3.9410 O   0  0  0  0  0  1  0  0  0  0  0  0
  1  2  2  0
  2  3  1  0
  2  4  1  0
  4  5  2  3
  5  6  1  0
  6  7  2  3
  7  8  1  0
  8  9  1  6
  8 10  1  0
 10 11  1  0
 11 12  1  0
 12 13  1  0
 13 14  1  0
 14 15  1  0
 15 16  1  1
 15 17  1  0
 17 18  1  0
 18 19  1  1
 18 20  1  0
 20 21  1  6
 20 22  1  0
 22 23  1  0
 23 24  1  0
 24 25  1  0
 25 26  1  0
 26 27  1  6
 27 28  1  0
 17 29  1  6
 29 30  1  0
 30 31  1  0
 31 32  1  0
 32 33  1  6
 32 34  1  0
 34 35  1  0
 34 36  2  0
  7 37  1  0
 37 38  1  0
 38 39  1  0
 39 40  1  0
 40 41  1  0
 39 42  1  6
 41  8  1  0
 26 21  1  0
M  RAD  8   9   3  10   2  11   2  12   2  13   2  22   2  23   2  28   3
M  CHG  3   2   1  35  -1  42  -1
M  RAD  2  30   2  38   2
M  END
>  <docking_score>  (2) 
11.661

$$$$
