
     RDKit          3D

 14 15  0  0  0  0  0  0  0  0999 V2000
   15.6512   -2.3848   -3.9349 C   0  0  1  0  0  0  0  0  0  0  0  0
   16.9253   -1.9343   -4.6597 C   0  0  0  0  0  3  0  0  0  0  0  0
   16.4256   -1.0643   -5.8064 C   0  0  0  0  0  0  0  0  0  0  0  0
   14.9711   -1.4227   -6.0072 C   0  0  2  0  0  0  0  0  0  0  0  0
   14.2122   -0.3947   -5.4231 O   0  0  0  0  0  0  0  0  0  0  0  0
   14.7624   -2.6429   -5.1716 C   0  0  1  0  0  0  0  0  0  0  0  0
   15.4716   -3.8711   -5.7217 C   0  0  0  0  0  0  0  0  0  0  0  0
   16.2374   -4.4014   -4.6893 O   0  0  0  0  0  0  0  0  0  0  0  0
   15.7825   -3.8493   -3.5149 C   0  0  1  0  0  0  0  0  0  0  0  0
   16.8108   -4.1052   -2.0908 S   0  0  0  0  0  0  0  0  0  0  0  0
   18.2365   -5.1348   -2.6082 C   0  0  0  0  0  3  0  0  0  0  0  0
   19.4650   -4.2998   -2.8550 C   0  0  0  0  0  0  0  0  0  0  0  0
   19.4577   -3.1754   -1.8644 C   0  0  0  0  0  0  0  0  0  0  0  0
   20.2437   -3.2015   -0.8069 C   0  0  0  0  0  3  0  0  0  0  0  0
  1  2  1  6
  2  3  1  0
  3  4  1  0
  4  5  1  1
  4  6  1  0
  6  7  1  6
  7  8  1  0
  8  9  1  0
  9 10  1  1
 10 11  1  0
 11 12  1  0
 12 13  1  0
 13 14  2  0
  6  1  1  0
  9  1  1  0
M  RAD  3   2   2  11   2  14   2
M  END
>  <docking_score>  (1) 
-4.0259999999999998

$$$$

     RDKit          3D

 14 15  0  0  0  0  0  0  0  0999 V2000
   16.9166   -3.8426   -4.3418 C   0  0  1  0  0  0  0  0  0  0  0  0
   15.5983   -3.1216   -4.0351 C   0  0  0  0  0  3  0  0  0  0  0  0
   15.9801   -2.0342   -3.0384 C   0  0  0  0  0  0  0  0  0  0  0  0
   17.3090   -2.4477   -2.4490 C   0  0  2  0  0  0  0  0  0  0  0  0
   18.2947   -1.6656   -3.0740 O   0  0  0  0  0  0  0  0  0  0  0  0
   17.5105   -3.8520   -2.9159 C   0  0  1  0  0  0  0  0  0  0  0  0
   16.5533   -4.8398   -2.2663 C   0  0  0  0  0  0  0  0  0  0  0  0
   15.9357   -5.5490   -3.2905 O   0  0  0  0  0  0  0  0  0  0  0  0
   16.6756   -5.3499   -4.4324 C   0  0  1  0  0  0  0  0  0  0  0  0
   15.9139   -5.8721   -5.9483 S   0  0  0  0  0  0  0  0  0  0  0  0
   16.4986   -4.7574   -7.2810 C   0  0  0  0  0  3  0  0  0  0  0  0
   15.3914   -3.8752   -7.7939 C   0  0  0  0  0  0  0  0  0  0  0  0
   15.8571   -2.4545   -7.6922 C   0  0  0  0  0  0  0  0  0  0  0  0
   17.1393   -2.1573   -7.7593 C   0  0  0  0  0  3  0  0  0  0  0  0
  1  2  1  1
  2  3  1  0
  3  4  1  0
  4  5  1  6
  4  6  1  0
  6  7  1  1
  7  8  1  0
  8  9  1  0
  9 10  1  6
 10 11  1  0
 11 12  1  0
 12 13  1  0
 13 14  2  0
  6  1  1  0
  9  1  1  0
M  RAD  3   2   2  11   2  14   2
M  END
>  <docking_score>  (2) 
-3.8279999999999998

$$$$

     RDKit          3D

 14 15  0  0  0  0  0  0  0  0999 V2000
   17.8160   -2.4927   -2.8328 C   0  0  1  0  0  0  0  0  0  0  0  0
   18.3441   -3.7073   -2.0597 C   0  0  0  0  0  3  0  0  0  0  0  0
   19.5877   -3.1940   -1.3445 C   0  0  0  0  0  0  0  0  0  0  0  0
   20.0050   -1.9359   -2.0706 C   0  0  2  0  0  0  0  0  0  0  0  0
   19.5886   -0.8509   -1.2810 O   0  0  0  0  0  0  0  0  0  0  0  0
   19.1683   -1.9169   -3.3077 C   0  0  1  0  0  0  0  0  0  0  0  0
   19.5516   -3.0009   -4.3037 C   0  0  0  0  0  0  0  0  0  0  0  0
   18.3909   -3.6980   -4.6206 O   0  0  0  0  0  0  0  0  0  0  0  0
   17.3259   -2.9290   -4.2140 C   0  0  1  0  0  0  0  0  0  0  0  0
   15.7471   -3.7403   -4.1997 S   0  0  0  0  0  0  0  0  0  0  0  0
   14.5954   -2.7407   -5.2169 C   0  0  0  0  0  3  0  0  0  0  0  0
   15.3346   -1.8105   -6.1419 C   0  0  0  0  0  0  0  0  0  0  0  0
   15.0475   -0.4072   -5.7014 C   0  0  0  0  0  0  0  0  0  0  0  0
   13.8529   -0.0689   -5.2592 C   0  0  0  0  0  3  0  0  0  0  0  0
  1  2  1  1
  2  3  1  0
  3  4  1  0
  4  5  1  1
  4  6  1  0
  6  7  1  6
  7  8  1  0
  8  9  1  0
  9 10  1  1
 10 11  1  0
 11 12  1  0
 12 13  1  0
 13 14  2  0
  6  1  1  0
  9  1  1  0
M  RAD  3   2   2  11   2  14   2
M  END
>  <docking_score>  (3) 
-3.7789999999999999

$$$$
