
     RDKit          3D

 33 34  0  0  0  0  0  0  0  0999 V2000
   16.1330   -3.2588   -5.9344 C   0  0  1  0  0  0  0  0  0  0  0  0
   16.4492   -3.8445   -7.2896 C   0  0  1  0  0  0  0  0  0  0  0  0
   17.8145   -3.4813   -7.7871 C   0  0  0  0  0  0  0  0  0  0  0  0
   16.1735   -5.3168   -7.3305 C   0  0  0  0  0  0  0  0  0  0  0  0
   17.3788   -6.1360   -7.7200 C   0  0  0  0  0  0  0  0  0  0  0  0
   17.1933   -7.5316   -7.1363 C   0  0  0  0  0  0  0  0  0  0  0  0
   18.2864   -7.8045   -6.1253 C   0  0  1  0  0  0  0  0  0  0  0  0
   19.3704   -8.5807   -6.8193 C   0  0  0  0  0  0  0  0  0  0  0  0
   18.8516   -6.4687   -5.6854 C   0  0  0  0  0  3  0  0  0  0  0  0
   18.2641   -6.1080   -4.3482 C   0  0  0  0  0  0  0  0  0  0  0  0
   19.3226   -6.2986   -3.2833 C   0  0  0  0  0  0  0  0  0  0  0  0
   20.6183   -5.6474   -3.7125 C   0  0  1  0  0  0  0  0  0  0  0  0
   21.1198   -6.1607   -5.0266 C   0  0  0  0  0  0  0  0  0  0  0  0
   20.4085   -4.1583   -3.8224 C   0  0  0  0  0  3  0  0  0  0  0  0
   20.4478   -3.6757   -5.2363 C   0  0  0  0  0  0  0  0  0  0  0  0
   19.8943   -2.2743   -5.3318 C   0  0  0  0  0  0  0  0  0  0  0  0
   19.2728   -1.9120   -4.0188 C   0  0  1  0  0  0  0  0  0  0  0  0
   19.2567   -0.3919   -3.8571 C   0  0  0  0  0  0  0  0  0  0  0  0
   19.6764    0.1707   -5.2203 C   0  0  0  0  0  0  0  0  0  0  0  0
   20.8162    1.1653   -4.9666 C   0  0  0  0  0  0  0  0  0  0  0  0
   21.1966    1.7076   -6.3364 C   0  0  0  0  0  0  0  0  0  0  0  0
   21.3816    3.1982   -6.2366 C   0  0  0  0  0  0  0  0  0  0  0  0
   20.5131    3.6867   -5.2517 O   0  0  0  0  0  0  0  0  0  0  0  0
   19.6531    4.6504   -5.7782 C   0  0  0  0  0  3  0  0  0  0  0  0
   20.0029    6.0322   -5.2877 C   0  0  0  0  0  0  0  0  0  0  0  0
   19.5142    6.2295   -3.8689 C   0  0  1  0  0  0  0  0  0  0  0  0
   20.4846    6.9868   -3.0178 C   0  0  0  0  0  0  0  0  0  0  0  0
   18.2371    6.7511   -3.8479 O   0  0  0  0  0  0  0  0  0  0  0  0
   17.8138   -2.3684   -4.0577 C   0  0  0  0  0  0  0  0  0  0  0  0
   16.9442   -1.3070   -4.6584 C   0  0  0  0  0  0  0  0  0  0  0  0
   16.2774   -1.7770   -5.9350 C   0  0  2  0  0  0  0  0  0  0  0  0
   14.8072   -1.7023   -5.8025 C   0  0  0  0  0  0  0  0  0  0  0  0
   14.6751   -3.0099   -5.8017 C   0  0  0  0  0  0  0  0  0  0  0  0
  1  2  1  0
  2  3  1  1
  2  4  1  0
  4  5  1  0
  5  6  1  0
  6  7  1  0
  7  8  1  6
  7  9  1  0
  9 10  1  0
 10 11  1  0
 11 12  1  0
 12 13  1  6
 12 14  1  0
 14 15  1  0
 15 16  1  0
 16 17  1  0
 17 18  1  6
 18 19  1  0
 19 20  1  0
 20 21  1  0
 21 22  1  0
 22 23  1  0
 23 24  1  0
 24 25  1  0
 25 26  1  0
 26 27  1  1
 26 28  1  0
 17 29  1  0
 29 30  1  0
 31 30  1  1
 31 32  1  0
 32 33  2  0
 31  1  1  0
  1 33  1  6
M  RAD  3   9   2  14   2  24   2
M  END
>  <docking_score>  (1) 
-4.2539999999999996

$$$$

     RDKit          3D

 33 34  0  0  0  0  0  0  0  0999 V2000
   16.7773   -2.6750   -6.7158 C   0  0  1  0  0  0  0  0  0  0  0  0
   15.3685   -2.6059   -6.1775 C   0  0  1  0  0  0  0  0  0  0  0  0
   14.9256   -3.8739   -5.5144 C   0  0  0  0  0  0  0  0  0  0  0  0
   15.1629   -1.3879   -5.3290 C   0  0  0  0  0  0  0  0  0  0  0  0
   14.6954   -1.7098   -3.9315 C   0  0  0  0  0  0  0  0  0  0  0  0
   15.1199   -0.5575   -3.0287 C   0  0  0  0  0  0  0  0  0  0  0  0
   16.1037   -1.0629   -1.9952 C   0  0  1  0  0  0  0  0  0  0  0  0
   15.3374   -1.3536   -0.7353 C   0  0  0  0  0  0  0  0  0  0  0  0
   16.6932   -2.3590   -2.5147 C   0  0  0  0  0  3  0  0  0  0  0  0
   18.0570   -2.0796   -3.0849 C   0  0  0  0  0  0  0  0  0  0  0  0
   19.1033   -2.6130   -2.1301 C   0  0  0  0  0  0  0  0  0  0  0  0
   18.7594   -4.0261   -1.7152 C   0  0  1  0  0  0  0  0  0  0  0  0
   17.4010   -4.1361   -1.0953 C   0  0  0  0  0  0  0  0  0  0  0  0
   18.8129   -4.9221   -2.9268 C   0  0  0  0  0  3  0  0  0  0  0  0
   17.4614   -5.4039   -3.3448 C   0  0  0  0  0  0  0  0  0  0  0  0
   17.5165   -5.9925   -4.7340 C   0  0  0  0  0  0  0  0  0  0  0  0
   18.8563   -5.6920   -5.3309 C   0  0  1  0  0  0  0  0  0  0  0  0
   19.1847   -6.7250   -6.4089 C   0  0  0  0  0  0  0  0  0  0  0  0
   18.3951   -7.9826   -6.0269 C   0  0  0  0  0  0  0  0  0  0  0  0
   17.7585   -8.5240   -7.3131 C   0  0  0  0  0  0  0  0  0  0  0  0
   17.8031  -10.0393   -7.1837 C   0  0  0  0  0  0  0  0  0  0  0  0
   18.6235  -10.6013   -8.3139 C   0  0  0  0  0  0  0  0  0  0  0  0
   18.1251  -11.8713   -8.6332 O   0  0  0  0  0  0  0  0  0  0  0  0
   17.2691  -12.3367   -7.6351 C   0  0  0  0  0  3  0  0  0  0  0  0
   16.7737  -13.7285   -7.9351 C   0  0  0  0  0  0  0  0  0  0  0  0
   17.3721  -14.7238   -6.9645 C   0  0  1  0  0  0  0  0  0  0  0  0
   16.5484  -15.9649   -6.8200 C   0  0  0  0  0  0  0  0  0  0  0  0
   18.6976  -14.9715   -7.2560 O   0  0  0  0  0  0  0  0  0  0  0  0
   18.7550   -4.3370   -6.0326 C   0  0  0  0  0  0  0  0  0  0  0  0
   18.2679   -4.5057   -7.4390 C   0  0  0  0  0  0  0  0  0  0  0  0
   16.9417   -3.8094   -7.6660 C   0  0  2  0  0  0  0  0  0  0  0  0
   17.0692   -2.8019   -8.7398 C   0  0  0  0  0  0  0  0  0  0  0  0
   16.9245   -1.7975   -7.9046 C   0  0  0  0  0  0  0  0  0  0  0  0
  1  2  1  0
  2  3  1  1
  2  4  1  0
  4  5  1  0
  5  6  1  0
  6  7  1  0
  7  8  1  1
  7  9  1  0
  9 10  1  0
 10 11  1  0
 11 12  1  0
 12 13  1  6
 12 14  1  0
 14 15  1  0
 15 16  1  0
 16 17  1  0
 17 18  1  6
 18 19  1  0
 19 20  1  0
 20 21  1  0
 21 22  1  0
 22 23  1  0
 23 24  1  0
 24 25  1  0
 25 26  1  0
 26 27  1  6
 26 28  1  0
 17 29  1  0
 29 30  1  0
 31 30  1  1
 31 32  1  0
 32 33  2  0
 31  1  1  0
  1 33  1  6
M  RAD  3   9   2  14   2  24   2
M  END
>  <docking_score>  (2) 
-3.9940000000000002

$$$$

     RDKit          3D

 33 34  0  0  0  0  0  0  0  0999 V2000
    4.4722    8.5471    5.1487 C   0  0  1  0  0  0  0  0  0  0  0  0
    3.9280    8.9196    3.7906 C   0  0  1  0  0  0  0  0  0  0  0  0
    2.7436    9.8340    3.8583 C   0  0  0  0  0  0  0  0  0  0  0  0
    5.0109    9.4155    2.8812 C   0  0  0  0  0  0  0  0  0  0  0  0
    4.7474   10.8002    2.3441 C   0  0  0  0  0  0  0  0  0  0  0  0
    6.0951   11.4226    1.9986 C   0  0  0  0  0  0  0  0  0  0  0  0
    6.3295   12.6351    2.8740 C   0  0  1  0  0  0  0  0  0  0  0  0
    5.9210   13.8520    2.0918 C   0  0  0  0  0  0  0  0  0  0  0  0
    5.4266   12.5111    4.0850 C   0  0  0  0  0  3  0  0  0  0  0  0
    6.2399   12.0169    5.2502 C   0  0  0  0  0  0  0  0  0  0  0  0
    6.4676   13.1664    6.2082 C   0  0  0  0  0  0  0  0  0  0  0  0
    5.1656   13.8867    6.4783 C   0  0  1  0  0  0  0  0  0  0  0  0
    4.5078   14.3871    5.2298 C   0  0  0  0  0  0  0  0  0  0  0  0
    4.2191   12.9465    7.1810 C   0  0  0  0  0  3  0  0  0  0  0  0
    3.0684   12.5395    6.3186 C   0  0  0  0  0  0  0  0  0  0  0  0
    2.3538   11.3517    6.9169 C   0  0  0  0  0  0  0  0  0  0  0  0
    3.1687   10.8243    8.0568 C   0  0  1  0  0  0  0  0  0  0  0  0
    2.2643   10.0723    9.0335 C   0  0  0  0  0  0  0  0  0  0  0  0
    2.2766   10.8992   10.3246 C   0  0  0  0  0  0  0  0  0  0  0  0
    3.6432   11.5914   10.4044 C   0  0  0  0  0  0  0  0  0  0  0  0
    4.2113   11.2163   11.7651 C   0  0  0  0  0  0  0  0  0  0  0  0
    5.6930   10.9879   11.6288 C   0  0  0  0  0  0  0  0  0  0  0  0
    6.3618   11.9633   12.3801 O   0  0  0  0  0  0  0  0  0  0  0  0
    5.4631   12.8916   12.9054 C   0  0  0  0  0  3  0  0  0  0  0  0
    6.0343   13.5950   14.1101 C   0  0  0  0  0  0  0  0  0  0  0  0
    4.9272   14.2143   14.9357 C   0  0  1  0  0  0  0  0  0  0  0  0
    3.6983   14.5105   14.1348 C   0  0  0  0  0  0  0  0  0  0  0  0
    4.6796   13.4756   16.0744 O   0  0  0  0  0  0  0  0  0  0  0  0
    4.1516    9.8011    7.4864 C   0  0  0  0  0  0  0  0  0  0  0  0
    3.5239    8.4424    7.4260 C   0  0  0  0  0  0  0  0  0  0  0  0
    3.4225    7.9285    6.0045 C   0  0  2  0  0  0  0  0  0  0  0  0
    4.1581    6.6540    5.8668 C   0  0  0  0  0  0  0  0  0  0  0  0
    5.0869    7.1959    5.1110 C   0  0  0  0  0  0  0  0  0  0  0  0
  1  2  1  0
  2  3  1  1
  2  4  1  0
  4  5  1  0
  5  6  1  0
  6  7  1  0
  7  8  1  6
  7  9  1  0
  9 10  1  0
 10 11  1  0
 11 12  1  0
 12 13  1  6
 12 14  1  0
 14 15  1  0
 15 16  1  0
 16 17  1  0
 17 18  1  1
 18 19  1  0
 19 20  1  0
 20 21  1  0
 21 22  1  0
 22 23  1  0
 23 24  1  0
 24 25  1  0
 25 26  1  0
 26 27  1  6
 26 28  1  0
 17 29  1  0
 29 30  1  0
 31 30  1  1
 31 32  1  0
 32 33  2  0
 31  1  1  0
  1 33  1  6
M  RAD  3   9   2  14   2  24   2
M  END
>  <docking_score>  (3) 
-3.3759999999999999

$$$$
