
     RDKit          3D

 23 22  0  0  0  0  0  0  0  0999 V2000
   17.4258   -9.1994   -5.2747 C   0  0  0  0  0  0  0  0  0  0  0  0
   17.8265   -7.7688   -5.5137 C   0  0  0  0  0  0  0  0  0  0  0  0
   18.4579   -7.1552   -4.2877 C   0  0  0  0  0  0  0  0  0  0  0  0
   16.6052   -6.9643   -5.9203 C   0  0  0  0  0  0  0  0  0  0  0  0
   17.0330   -5.5478   -6.2569 C   0  0  0  0  0  0  0  0  0  0  0  0
   17.8084   -5.6250   -7.5677 C   0  0  0  0  0  0  0  0  0  0  0  0
   19.0174   -4.6653   -7.4370 C   0  0  1  0  0  0  0  0  0  0  0  0
   18.7097   -3.5776   -8.4754 C   0  0  0  0  0  0  0  0  0  0  0  0
   18.8402   -4.0436   -6.0662 C   0  0  0  0  0  3  0  0  0  0  0  0
   20.0559   -3.1840   -5.8057 C   0  0  0  0  0  0  0  0  0  0  0  0
   20.5933   -3.5547   -4.4415 C   0  0  0  0  0  0  0  0  0  0  0  0
   19.7938   -2.7918   -3.4165 C   0  0  2  0  0  0  0  0  0  0  0  0
   20.6928   -2.1123   -2.4322 C   0  0  0  0  0  0  0  0  0  0  0  0
   18.9133   -3.7877   -2.6898 C   0  0  0  0  0  0  0  0  0  0  0  0
   17.7651   -2.9944   -2.0891 C   0  0  2  0  0  0  0  0  0  0  0  0
   16.7221   -3.9121   -1.4796 C   0  0  0  0  0  0  0  0  0  0  0  0
   17.0841   -2.2643   -3.2394 C   0  0  0  0  0  0  0  0  0  0  0  0
   15.9790   -3.1422   -3.7854 C   0  0  0  0  0  0  0  0  0  0  0  0
   15.1815   -2.3642   -4.8056 C   0  0  0  0  0  0  0  0  0  0  0  0
   16.1611   -1.9734   -5.9129 C   0  0  0  0  0  0  0  0  0  0  0  0
   14.1086   -3.2323   -5.4277 C   0  0  0  0  0  0  0  0  0  0  0  0
   14.5101   -1.1562   -4.2068 C   0  0  0  0  0  0  0  0  0  0  0  0
   14.7226   -0.0514   -5.0017 F   0  0  0  0  0  0  0  0  0  0  0  0
  1  2  1  0
  2  3  1  0
  2  4  1  0
  4  5  1  0
  5  6  1  0
  6  7  1  0
  7  8  1  6
  7  9  1  0
  9 10  1  0
 10 11  1  0
 11 12  1  0
 12 13  1  1
 12 14  1  0
 14 15  1  0
 15 16  1  6
 15 17  1  0
 17 18  1  0
 18 19  1  0
 19 20  1  0
 19 21  1  0
 19 22  1  0
 22 23  1  0
M  RAD  1   9   2
M  END
>  <docking_score>  (1) 
-3.302

$$$$

     RDKit          3D

 23 22  0  0  0  0  0  0  0  0999 V2000
   19.2835   -6.3830   -4.8049 C   0  0  0  0  0  0  0  0  0  0  0  0
   19.5224   -6.2513   -6.2847 C   0  0  0  0  0  0  0  0  0  0  0  0
   20.6733   -5.3210   -6.5821 C   0  0  0  0  0  0  0  0  0  0  0  0
   18.2608   -5.7390   -6.9555 C   0  0  0  0  0  0  0  0  0  0  0  0
   17.1469   -5.6644   -5.9277 C   0  0  0  0  0  0  0  0  0  0  0  0
   15.8371   -5.8381   -6.6890 C   0  0  0  0  0  0  0  0  0  0  0  0
   14.8102   -6.4359   -5.6950 C   0  0  1  0  0  0  0  0  0  0  0  0
   15.5441   -6.3560   -4.3493 C   0  0  0  0  0  0  0  0  0  0  0  0
   13.6963   -5.4088   -5.6632 C   0  0  0  0  0  3  0  0  0  0  0  0
   14.2362   -4.1456   -6.2938 C   0  0  0  0  0  0  0  0  0  0  0  0
   14.0543   -3.0235   -5.2962 C   0  0  0  0  0  0  0  0  0  0  0  0
   15.2879   -2.1597   -5.3555 C   0  0  2  0  0  0  0  0  0  0  0  0
   15.7362   -1.9610   -6.7692 C   0  0  0  0  0  0  0  0  0  0  0  0
   16.3785   -2.8658   -4.5763 C   0  0  0  0  0  0  0  0  0  0  0  0
   17.3758   -1.7978   -4.1602 C   0  0  2  0  0  0  0  0  0  0  0  0
   18.1442   -1.2671   -5.3558 C   0  0  0  0  0  0  0  0  0  0  0  0
   18.3948   -2.4753   -3.2533 C   0  0  0  0  0  0  0  0  0  0  0  0
   18.7484   -1.5280   -2.1274 C   0  0  0  0  0  0  0  0  0  0  0  0
   20.2311   -1.6127   -1.8508 C   0  0  0  0  0  0  0  0  0  0  0  0
   20.6361   -0.2659   -1.2502 C   0  0  0  0  0  0  0  0  0  0  0  0
   20.5275   -2.6819   -0.8209 C   0  0  0  0  0  0  0  0  0  0  0  0
   21.0269   -1.9298   -3.0896 C   0  0  0  0  0  0  0  0  0  0  0  0
   21.2751   -0.7778   -3.8030 F   0  0  0  0  0  0  0  0  0  0  0  0
  1  2  1  0
  2  3  1  0
  2  4  1  0
  4  5  1  0
  5  6  1  0
  6  7  1  0
  7  8  1  1
  7  9  1  0
  9 10  1  0
 10 11  1  0
 11 12  1  0
 12 13  1  6
 12 14  1  0
 14 15  1  0
 15 16  1  6
 15 17  1  0
 17 18  1  0
 18 19  1  0
 19 20  1  0
 19 21  1  0
 19 22  1  0
 22 23  1  0
M  RAD  1   9   2
M  END
>  <docking_score>  (2) 
-2.6920000000000002

$$$$

     RDKit          3D

 23 22  0  0  0  0  0  0  0  0999 V2000
   14.8425    0.0428   -4.1017 C   0  0  0  0  0  0  0  0  0  0  0  0
   14.5153   -0.7070   -5.3647 C   0  0  0  0  0  0  0  0  0  0  0  0
   13.0961   -1.2209   -5.3552 C   0  0  0  0  0  0  0  0  0  0  0  0
   15.4809   -1.8668   -5.5271 C   0  0  0  0  0  0  0  0  0  0  0  0
   16.1194   -1.7929   -6.9017 C   0  0  0  0  0  0  0  0  0  0  0  0
   15.2246   -2.5920   -7.8431 C   0  0  0  0  0  0  0  0  0  0  0  0
   15.3490   -4.0807   -7.4328 C   0  0  1  0  0  0  0  0  0  0  0  0
   14.3055   -4.7727   -8.3206 C   0  0  0  0  0  0  0  0  0  0  0  0
   16.7168   -4.4848   -7.9453 C   0  0  0  0  0  3  0  0  0  0  0  0
   17.3457   -5.3662   -6.8907 C   0  0  0  0  0  0  0  0  0  0  0  0
   18.1764   -6.4097   -7.6038 C   0  0  0  0  0  0  0  0  0  0  0  0
   18.5401   -7.4677   -6.5938 C   0  0  2  0  0  0  0  0  0  0  0  0
   18.0446   -8.8125   -7.0237 C   0  0  0  0  0  0  0  0  0  0  0  0
   17.8894   -7.0881   -5.2795 C   0  0  0  0  0  0  0  0  0  0  0  0
   19.0144   -6.9063   -4.2746 C   0  0  2  0  0  0  0  0  0  0  0  0
   19.4337   -8.2339   -3.6721 C   0  0  0  0  0  0  0  0  0  0  0  0
   18.4548   -6.0672   -3.1332 C   0  0  0  0  0  0  0  0  0  0  0  0
   17.9134   -4.7735   -3.7016 C   0  0  0  0  0  0  0  0  0  0  0  0
   18.5254   -3.6079   -2.9607 C   0  0  0  0  0  0  0  0  0  0  0  0
   19.5315   -4.2031   -1.9748 C   0  0  0  0  0  0  0  0  0  0  0  0
   19.2892   -2.7075   -3.9081 C   0  0  0  0  0  0  0  0  0  0  0  0
   17.4900   -2.7692   -2.2586 C   0  0  0  0  0  0  0  0  0  0  0  0
   16.3663   -3.5218   -1.9968 F   0  0  0  0  0  0  0  0  0  0  0  0
  1  2  1  0
  2  3  1  0
  2  4  1  0
  4  5  1  0
  5  6  1  0
  6  7  1  0
  7  8  1  6
  7  9  1  0
  9 10  1  0
 10 11  1  0
 11 12  1  0
 12 13  1  6
 12 14  1  0
 14 15  1  0
 15 16  1  1
 15 17  1  0
 17 18  1  0
 18 19  1  0
 19 20  1  0
 19 21  1  0
 19 22  1  0
 22 23  1  0
M  RAD  1   9   2
M  END
>  <docking_score>  (3) 
-2.4390000000000001

$$$$
