
     RDKit          3D

 30 31  0  0  0  0  0  0  0  0999 V2000
    7.7831   15.5372    3.5797 C   0  0  0  0  0  0  0  0  0  0  0  0
    8.5379   14.3151    3.1091 C   0  0  0  0  0  0  0  0  0  0  0  0
   10.0142   14.6709    2.9541 C   0  0  0  0  0  0  0  0  0  0  0  0
    7.9426   13.9341    1.7561 C   0  0  0  0  0  0  0  0  0  0  0  0
    8.4507   13.1782    4.0591 C   0  0  0  0  0  0  0  0  0  0  0  0
    7.2676   12.8273    4.5265 C   0  0  0  0  0  0  0  0  0  0  0  0
    6.0476   13.5294    4.1313 C   0  0  1  0  0  0  0  0  0  0  0  0
    5.7280   13.4962    2.7402 N   0  0  0  0  0  0  0  0  0  0  0  0
    4.8722   13.3378    5.0494 C   0  0  1  0  0  0  0  0  0  0  0  0
    5.3017   13.1422    6.4997 C   0  0  0  0  0  0  0  0  0  0  0  0
    3.8927   14.4623    5.0070 C   0  0  0  0  0  0  0  0  0  0  0  0
    4.2086   12.0549    4.6310 C   0  0  0  0  0  0  0  0  0  0  0  0
    2.9014   12.1249    4.1027 S   0  0  0  0  0  0  0  0  0  0  0  0
    4.9718   10.7856    4.7992 C   0  0  0  0  0  0  0  0  0  0  0  0
    4.1746    9.7655    5.4823 N   0  0  0  0  0  0  0  0  0  0  0  0
    3.0165   10.1735    6.2364 C   0  0  0  0  0  0  0  0  0  0  0  0
    3.0507    9.7460    7.6587 C   0  0  0  0  0  0  0  0  0  0  0  0
    2.3422    8.5705    7.9392 C   0  0  0  0  0  0  0  0  0  0  0  0
    2.3116    8.0932    9.2336 C   0  0  0  0  0  0  0  0  0  0  0  0
    2.9612    8.7541   10.2297 C   0  0  0  0  0  0  0  0  0  0  0  0
    2.9422    8.1761   11.8810 Cl  0  0  0  0  0  0  0  0  0  0  0  0
    3.6522    9.9104    9.9276 C   0  0  0  0  0  0  0  0  0  0  0  0
    3.7141   10.4277    8.6559 C   0  0  0  0  0  0  0  0  0  0  0  0
    4.4347   11.6435    8.2878 C   0  0  0  0  0  0  0  0  0  0  0  0
    4.6210   11.9891    7.0316 C   0  0  0  0  0  0  0  0  0  0  0  0
    4.6237    8.4322    5.3456 C   0  0  0  0  0  0  0  0  0  0  0  0
    4.8504    7.9625    4.1795 N   0  0  0  0  0  0  0  0  0  0  0  0
    4.6562    8.7491    3.0815 O   0  0  0  0  0  0  0  0  0  0  0  0
    3.3514    9.0808    2.7761 C   0  0  0  0  0  0  0  0  0  0  0  0
    2.2575    9.3687    2.5359 N   0  0  0  0  0  0  0  0  0  0  0  0
  1  2  1  0
  2  3  1  0
  2  4  1  0
  2  5  1  0
  5  6  2  3
  6  7  1  0
  7  8  1  6
  7  9  1  0
  9 10  1  0
  9 11  1  1
  9 12  1  0
 12 13  2  0
 12 14  1  0
 14 15  1  0
 15 16  1  0
 16 17  1  0
 17 18  2  0
 18 19  1  0
 19 20  2  0
 20 21  1  0
 20 22  1  0
 22 23  2  0
 23 24  1  0
 24 25  2  3
 15 26  1  0
 26 27  2  3
 27 28  1  0
 28 29  1  0
 29 30  3  0
 25 10  1  0
 23 17  1  0
M  END
>  <docking_score>  (1) 
-2.3069999999999999

$$$$

     RDKit          3D

 30 31  0  0  0  0  0  0  0  0999 V2000
   14.9808   -1.2486   -6.6997 C   0  0  0  0  0  0  0  0  0  0  0  0
   15.5528   -0.7198   -5.4043 C   0  0  0  0  0  0  0  0  0  0  0  0
   15.3625    0.7940   -5.3575 C   0  0  0  0  0  0  0  0  0  0  0  0
   17.0398   -1.0642   -5.4163 C   0  0  0  0  0  0  0  0  0  0  0  0
   14.8924   -1.2895   -4.2035 C   0  0  0  0  0  0  0  0  0  0  0  0
   15.2592   -2.4846   -3.7809 C   0  0  0  0  0  0  0  0  0  0  0  0
   16.2960   -3.2555   -4.4652 C   0  0  1  0  0  0  0  0  0  0  0  0
   17.4523   -3.5759   -3.6912 N   0  0  0  0  0  0  0  0  0  0  0  0
   15.7936   -4.3748   -5.3345 C   0  0  1  0  0  0  0  0  0  0  0  0
   15.9408   -5.7355   -4.6616 C   0  0  0  0  0  0  0  0  0  0  0  0
   14.3685   -4.2165   -5.7463 C   0  0  0  0  0  0  0  0  0  0  0  0
   16.6839   -4.4066   -6.5461 C   0  0  0  0  0  0  0  0  0  0  0  0
   16.1104   -4.1028   -7.7997 S   0  0  0  0  0  0  0  0  0  0  0  0
   18.1193   -4.7571   -6.3500 C   0  0  0  0  0  0  0  0  0  0  0  0
   18.5516   -5.7963   -7.2859 N   0  0  0  0  0  0  0  0  0  0  0  0
   17.5548   -6.6065   -7.9389 C   0  0  0  0  0  0  0  0  0  0  0  0
   17.7311   -8.0643   -7.7138 C   0  0  0  0  0  0  0  0  0  0  0  0
   18.4010   -8.7434   -8.7397 C   0  0  0  0  0  0  0  0  0  0  0  0
   18.6109  -10.1025   -8.6249 C   0  0  0  0  0  0  0  0  0  0  0  0
   18.1737  -10.7794   -7.5287 C   0  0  0  0  0  0  0  0  0  0  0  0
   18.4235  -12.5020   -7.3520 Cl  0  0  0  0  0  0  0  0  0  0  0  0
   17.5160  -10.0873   -6.5314 C   0  0  0  0  0  0  0  0  0  0  0  0
   17.2816   -8.7347   -6.5968 C   0  0  0  0  0  0  0  0  0  0  0  0
   16.5950   -7.9598   -5.5667 C   0  0  0  0  0  0  0  0  0  0  0  0
   16.5656   -6.6443   -5.5888 C   0  0  0  0  0  0  0  0  0  0  0  0
   19.9472   -5.9241   -7.4702 C   0  0  0  0  0  0  0  0  0  0  0  0
   20.7031   -4.9158   -7.2613 N   0  0  0  0  0  0  0  0  0  0  0  0
   20.1578   -3.7293   -6.8651 O   0  0  0  0  0  0  0  0  0  0  0  0
   19.7569   -2.8641   -7.8634 C   0  0  0  0  0  0  0  0  0  0  0  0
   19.4079   -2.1515   -8.7045 N   0  0  0  0  0  0  0  0  0  0  0  0
  1  2  1  0
  2  3  1  0
  2  4  1  0
  2  5  1  0
  5  6  2  3
  6  7  1  0
  7  8  1  1
  7  9  1  0
  9 10  1  0
  9 11  1  6
  9 12  1  0
 12 13  2  0
 12 14  1  0
 14 15  1  0
 15 16  1  0
 16 17  1  0
 17 18  2  0
 18 19  1  0
 19 20  2  0
 20 21  1  0
 20 22  1  0
 22 23  2  0
 23 24  1  0
 24 25  2  3
 15 26  1  0
 26 27  2  3
 27 28  1  0
 28 29  1  0
 29 30  3  0
 25 10  1  0
 23 17  1  0
M  END
>  <docking_score>  (2) 
-1.141

$$$$
