
     RDKit          3D

 28 29  0  0  0  0  0  0  0  0999 V2000
   19.4592   -5.2654   -2.7175 C   0  0  0  0  0  0  0  0  0  0  0  0
   19.0711   -6.5800   -3.3687 C   0  0  1  0  0  0  0  0  0  0  0  0
   18.3992   -6.2123   -4.6982 C   0  0  2  0  0  0  0  0  0  0  0  0
   18.0731   -7.4777   -5.4254 C   0  0  2  0  0  0  0  0  0  0  0  0
   16.6928   -7.6615   -5.3958 O   0  0  0  0  0  0  0  0  0  0  0  0
   18.6906   -8.5975   -4.8528 O   0  0  0  0  0  0  0  0  0  0  0  0
   20.0593   -8.3133   -4.8225 C   0  0  0  0  0  3  0  0  0  0  0  0
   20.3709   -7.2890   -3.7504 C   0  0  1  0  0  0  0  0  0  0  0  0
   21.2729   -6.2444   -4.3711 C   0  0  0  0  0  0  0  0  0  0  0  0
   20.6562   -5.8868   -5.7281 C   0  0  0  0  0  3  0  0  0  0  0  0
   19.3073   -5.3062   -5.4583 C   0  0  1  0  0  0  0  0  0  0  0  0
   18.6255   -4.7317   -6.6456 C   0  0  0  0  0  0  0  0  0  0  0  0
   17.1463   -4.4992   -6.4791 C   0  0  0  0  0  3  0  0  0  0  0  0
   16.7794   -3.0634   -6.6905 C   0  0  0  0  0  0  0  0  0  0  0  0
   15.3394   -2.9642   -7.0886 C   0  0  1  0  0  0  0  0  0  0  0  0
   15.1803   -2.2911   -8.4188 C   0  0  0  0  0  1  0  0  0  0  0  0
   14.7688   -4.3844   -7.1165 C   0  0  0  0  0  0  0  0  0  0  0  0
   14.5837   -2.1766   -6.0211 C   0  0  0  0  0  0  0  0  0  0  0  0
   15.5026   -1.1000   -5.4465 C   0  0  1  0  0  0  0  0  0  0  0  0
   14.9724    0.1288   -5.9025 O   0  0  0  0  0  0  0  0  0  0  0  0
   15.3010   -1.1233   -4.0096 N   0  0  0  0  0  3  0  0  0  0  0  0
   14.0112   -0.7797   -3.7850 O   0  0  0  0  0  0  0  0  0  0  0  0
   15.6864   -2.3582   -3.4003 C   0  0  0  0  0  3  0  0  0  0  0  0
   16.6759   -2.0590   -2.2939 C   0  0  0  0  0  3  0  0  0  0  0  0
   18.1092   -2.2306   -2.7486 C   0  0  0  0  0  0  0  0  0  0  0  0
   18.9606   -1.1690   -2.1184 C   0  0  0  0  0  0  0  0  0  0  0  0
   20.0006   -0.7285   -3.1051 C   0  0  0  0  0  0  0  0  0  0  0  0
   19.2834   -0.7034   -4.9010 Br  0  0  0  0  0  0  0  0  0  0  0  0
  2  1  1  1
  2  3  1  0
  3  4  1  6
  4  5  1  1
  4  6  1  0
  6  7  1  0
  8  7  1  6
  8  9  1  0
  9 10  1  0
 10 11  1  0
 11 12  1  6
 12 13  1  0
 13 14  1  0
 14 15  1  0
 15 16  1  6
 15 17  1  0
 15 18  1  0
 18 19  1  0
 19 20  1  6
 19 21  1  0
 21 22  1  0
 21 23  1  0
 23 24  1  0
 24 25  1  0
 25 26  1  0
 26 27  1  0
 27 28  1  0
  8  2  1  0
 11  3  1  0
M  CHG  1  21   1
M  RAD  7   7   2  10   2  13   2  16   2  21   2  23   2  24   2
M  END
>  <docking_score>  (1) 
-4.3070000000000004

$$$$

     RDKit          3D

 28 29  0  0  0  0  0  0  0  0999 V2000
   17.1850   -4.2171   -2.3703 C   0  0  0  0  0  0  0  0  0  0  0  0
   18.6396   -4.4221   -2.7514 C   0  0  1  0  0  0  0  0  0  0  0  0
   18.8711   -3.5757   -4.0102 C   0  0  2  0  0  0  0  0  0  0  0  0
   20.3166   -3.6717   -4.3813 C   0  0  2  0  0  0  0  0  0  0  0  0
   20.4267   -4.4462   -5.5337 O   0  0  0  0  0  0  0  0  0  0  0  0
   21.0906   -4.2547   -3.3693 O   0  0  0  0  0  0  0  0  0  0  0  0
   20.8638   -3.4926   -2.2191 C   0  0  0  0  0  3  0  0  0  0  0  0
   19.4833   -3.7666   -1.6578 C   0  0  1  0  0  0  0  0  0  0  0  0
   18.8443   -2.4287   -1.3550 C   0  0  0  0  0  0  0  0  0  0  0  0
   19.0986   -1.5379   -2.5762 C   0  0  0  0  0  3  0  0  0  0  0  0
   18.4177   -2.1814   -3.7388 C   0  0  1  0  0  0  0  0  0  0  0  0
   18.4009   -1.3685   -4.9813 C   0  0  0  0  0  0  0  0  0  0  0  0
   17.0402   -1.1808   -5.6002 C   0  0  0  0  0  3  0  0  0  0  0  0
   16.3035   -2.4772   -5.7329 C   0  0  0  0  0  0  0  0  0  0  0  0
   15.6235   -2.5367   -7.0656 C   0  0  1  0  0  0  0  0  0  0  0  0
   14.6078   -1.4441   -7.2154 C   0  0  0  0  0  1  0  0  0  0  0  0
   16.7070   -2.4349   -8.1421 C   0  0  0  0  0  0  0  0  0  0  0  0
   14.9423   -3.8949   -7.2136 C   0  0  0  0  0  0  0  0  0  0  0  0
   14.7538   -4.5158   -5.8307 C   0  0  1  0  0  0  0  0  0  0  0  0
   13.3744   -4.3893   -5.5470 O   0  0  0  0  0  0  0  0  0  0  0  0
   15.0094   -5.9356   -5.9883 N   0  0  0  0  0  3  0  0  0  0  0  0
   15.6557   -6.0931   -7.1671 O   0  0  0  0  0  0  0  0  0  0  0  0
   15.6875   -6.5195   -4.8729 C   0  0  0  0  0  3  0  0  0  0  0  0
   16.6457   -7.5713   -5.3911 C   0  0  0  0  0  3  0  0  0  0  0  0
   18.0734   -7.3001   -4.9684 C   0  0  0  0  0  0  0  0  0  0  0  0
   18.9851   -7.4982   -6.1426 C   0  0  0  0  0  0  0  0  0  0  0  0
   20.3242   -7.9582   -5.6481 C   0  0  0  0  0  0  0  0  0  0  0  0
   20.4094   -7.8890   -3.7172 Br  0  0  0  0  0  0  0  0  0  0  0  0
  2  1  1  1
  2  3  1  0
  3  4  1  1
  4  5  1  6
  4  6  1  0
  6  7  1  0
  8  7  1  6
  8  9  1  0
  9 10  1  0
 10 11  1  0
 11 12  1  6
 12 13  1  0
 13 14  1  0
 14 15  1  0
 15 16  1  1
 15 17  1  0
 15 18  1  0
 18 19  1  0
 19 20  1  6
 19 21  1  0
 21 22  1  0
 21 23  1  0
 23 24  1  0
 24 25  1  0
 25 26  1  0
 26 27  1  0
 27 28  1  0
  8  2  1  0
 11  3  1  0
M  CHG  1  21   1
M  RAD  7   7   2  10   2  13   2  16   2  21   2  23   2  24   2
M  END
>  <docking_score>  (2) 
-4.1849999999999996

$$$$

     RDKit          3D

 28 29  0  0  0  0  0  0  0  0999 V2000
    5.7098    9.8320   11.4543 C   0  0  0  0  0  0  0  0  0  0  0  0
    6.3027   11.0318   12.1696 C   0  0  1  0  0  0  0  0  0  0  0  0
    6.1617   12.2143   11.2021 C   0  0  2  0  0  0  0  0  0  0  0  0
    6.6529   13.4469   11.8921 C   0  0  2  0  0  0  0  0  0  0  0  0
    7.8678   13.8187   11.3213 O   0  0  0  0  0  0  0  0  0  0  0  0
    6.8405   13.2510   13.2667 O   0  0  0  0  0  0  0  0  0  0  0  0
    5.6181   12.7883   13.7635 C   0  0  0  0  0  3  0  0  0  0  0  0
    5.3776   11.3524   13.3439 C   0  0  1  0  0  0  0  0  0  0  0  0
    3.9603   11.2654   12.8206 C   0  0  0  0  0  0  0  0  0  0  0  0
    3.7672   12.4633   11.8841 C   0  0  0  0  0  3  0  0  0  0  0  0
    4.7398   12.3052   10.7623 C   0  0  1  0  0  0  0  0  0  0  0  0
    4.5795   13.2806    9.6543 C   0  0  0  0  0  0  0  0  0  0  0  0
    4.6764   12.6926    8.2705 C   0  0  0  0  0  3  0  0  0  0  0  0
    3.4068   12.0123    7.8627 C   0  0  0  0  0  0  0  0  0  0  0  0
    3.7260   10.7638    7.1003 C   0  0  1  0  0  0  0  0  0  0  0  0
    4.3169    9.7110    7.9893 C   0  0  0  0  0  1  0  0  0  0  0  0
    2.4290   10.2743    6.4513 C   0  0  0  0  0  0  0  0  0  0  0  0
    4.7095   11.1037    5.9832 C   0  0  0  0  0  0  0  0  0  0  0  0
    4.0162   10.9296    4.6332 C   0  0  1  0  0  0  0  0  0  0  0  0
    3.8787   12.2359    4.1102 O   0  0  0  0  0  0  0  0  0  0  0  0
    4.9675   10.2453    3.7771 N   0  0  0  0  0  3  0  0  0  0  0  0
    4.3844    9.0896    3.3816 O   0  0  0  0  0  0  0  0  0  0  0  0
    5.4455   11.0523    2.6977 C   0  0  0  0  0  3  0  0  0  0  0  0
    6.9542   10.9353    2.6430 C   0  0  0  0  0  3  0  0  0  0  0  0
    7.6288   11.7418    3.7315 C   0  0  0  0  0  0  0  0  0  0  0  0
    7.8471   13.1444    3.2475 C   0  0  0  0  0  0  0  0  0  0  0  0
    7.6417   14.0924    4.3913 C   0  0  0  0  0  0  0  0  0  0  0  0
    9.2913   14.9928    4.8480 Br  0  0  0  0  0  0  0  0  0  0  0  0
  2  1  1  6
  2  3  1  0
  3  4  1  1
  4  5  1  6
  4  6  1  0
  6  7  1  0
  8  7  1  6
  8  9  1  0
  9 10  1  0
 10 11  1  0
 11 12  1  6
 12 13  1  0
 13 14  1  0
 14 15  1  0
 15 16  1  1
 15 17  1  0
 15 18  1  0
 18 19  1  0
 19 20  1  6
 19 21  1  0
 21 22  1  0
 21 23  1  0
 23 24  1  0
 24 25  1  0
 25 26  1  0
 26 27  1  0
 27 28  1  0
  8  2  1  0
 11  3  1  0
M  CHG  1  21   1
M  RAD  7   7   2  10   2  13   2  16   2  21   2  23   2  24   2
M  END
>  <docking_score>  (3) 
-3.1850000000000001

$$$$
