
     RDKit          3D

 39 41  0  0  0  0  0  0  0  0999 V2000
    4.9542   10.7662    4.9149 C   0  0  0  0  0  0  0  0  0  0  0  0
    4.8223   10.4199    6.3710 C   0  0  1  0  0  0  0  0  0  0  0  0
    5.4565   11.5030    7.2215 C   0  0  0  0  0  0  0  0  0  0  0  0
    3.3738   10.1990    6.7608 C   0  0  0  0  0  0  0  0  0  0  0  0
    3.3136    9.6546    8.1700 C   0  0  0  0  0  0  0  0  0  0  0  0
    2.2575   10.4323    8.9272 C   0  0  0  0  0  0  0  0  0  0  0  0
    2.8111   11.1416   10.1276 C   0  0  1  0  0  0  0  0  0  0  0  0
    4.0873   10.5285   10.6147 C   0  0  0  0  0  0  0  0  0  0  0  0
    3.0131   12.5977    9.7954 C   0  0  0  0  0  3  0  0  0  0  0  0
    3.6516   13.3347   10.9413 C   0  0  0  0  0  0  0  0  0  0  0  0
    4.6169   14.3994   10.4916 C   0  0  0  0  0  0  0  0  0  0  0  0
    4.4042   14.6949    9.0239 C   0  0  0  0  0  3  0  0  0  0  0  0
    5.5867   15.5013    8.4753 C   0  0  1  0  0  0  0  0  0  0  0  0
    6.6531   15.5932    9.4264 N   0  0  0  0  0  0  0  0  0  0  0  0
    5.9799   14.8622    7.1742 C   0  0  0  0  0  0  0  0  0  0  0  0
    7.4603   15.0349    6.8680 C   0  0  2  0  0  0  0  0  0  0  0  0
    7.9135   16.0516    7.7203 F   0  0  0  0  0  0  0  0  0  0  0  0
    7.6243   15.5340    5.4713 C   0  0  1  0  0  0  0  0  0  0  0  0
    8.9581   15.7558    4.9723 C   0  0  0  0  0  0  0  0  0  0  0  0
    8.8286   14.8833    4.0249 C   0  0  0  0  0  0  0  0  0  0  0  0
    9.9664   14.3344    2.7355 S   0  0  0  0  0  0  0  0  0  0  0  0
    7.4791   14.5502    4.4025 C   0  0  2  0  0  0  0  0  0  0  0  0
    6.3886   14.8735    3.4004 C   0  0  0  0  0  0  0  0  0  0  0  0
    6.6999   14.0919    1.7988 S   0  0  0  0  0  0  0  0  0  0  0  0
    6.0831   12.4027    1.7755 C   0  0  1  0  0  0  0  0  0  0  0  0
    6.6957   11.6817    0.6084 C   0  0  0  0  0  0  0  0  0  0  0  0
    7.3655   13.1150    4.8853 C   0  0  0  0  0  0  0  0  0  0  0  0
    7.6936   12.2233    3.6960 C   0  0  0  0  0  0  0  0  0  0  0  0
    6.4085   11.7533    3.1025 C   0  0  2  0  0  0  0  0  0  0  0  0
    6.3240   10.2503    2.9600 C   0  0  0  0  0  3  0  0  0  0  0  0
    5.3692    9.9559    1.8217 C   0  0  0  0  0  0  0  0  0  0  0  0
    5.7906    9.6882    4.2588 C   0  0  2  0  0  0  0  0  0  0  0  0
    4.8842    8.4989    4.0043 C   0  0  0  0  0  0  0  0  0  0  0  0
    5.7130    7.3269    3.5656 C   0  0  0  0  0  3  0  0  0  0  0  0
    4.9647    6.0348    3.8490 C   0  0  0  0  0  0  0  0  0  0  0  0
    3.5321    6.2370    3.3660 C   0  0  0  0  0  0  0  0  0  0  0  0
    2.5719    6.2438    4.5146 C   0  0  0  0  0  0  0  0  0  0  0  0
    3.2006    5.6719    5.7639 C   0  0  0  0  0  0  0  0  0  0  0  0
    2.2581    4.9590    6.5210 O   0  0  0  0  0  1  0  0  0  0  0  0
  1  2  1  0
  2  3  1  1
  2  4  1  0
  4  5  1  0
  5  6  1  0
  6  7  1  0
  7  8  1  6
  7  9  1  0
  9 10  1  0
 10 11  1  0
 11 12  1  0
 12 13  1  0
 13 14  1  1
 13 15  1  0
 15 16  1  0
 16 17  1  1
 18 16  1  0
 18 19  1  1
 19 20  2  0
 20 21  1  0
 20 22  1  0
 22 23  1  6
 23 24  1  0
 24 25  1  0
 25 26  1  6
 22 27  1  0
 27 28  1  0
 28 29  1  0
 29 30  1  6
 30 31  1  0
 30 32  1  0
 32 33  1  6
 33 34  1  0
 34 35  1  0
 35 36  1  0
 36 37  1  0
 37 38  1  0
 38 39  1  0
 32  1  1  0
 22 18  1  0
 29 25  1  0
M  CHG  1  39  -1
M  RAD  4   9   2  12   2  30   2  34   2
M  END
>  <docking_score>  (1) 
-2.5950000000000002

$$$$

     RDKit          3D

 39 41  0  0  0  0  0  0  0  0999 V2000
    4.5661   10.4168    6.0746 C   0  0  0  0  0  0  0  0  0  0  0  0
    4.5783   10.2142    7.5633 C   0  0  1  0  0  0  0  0  0  0  0  0
    5.2524   11.3907    8.2417 C   0  0  0  0  0  0  0  0  0  0  0  0
    3.1791   10.0002    8.1067 C   0  0  0  0  0  0  0  0  0  0  0  0
    3.2647    9.5975    9.5615 C   0  0  0  0  0  0  0  0  0  0  0  0
    2.2576   10.4224   10.3353 C   0  0  0  0  0  0  0  0  0  0  0  0
    2.8952   11.2601   11.4040 C   0  0  1  0  0  0  0  0  0  0  0  0
    4.2293   10.7278   11.8266 C   0  0  0  0  0  0  0  0  0  0  0  0
    3.0196   12.6802   10.9148 C   0  0  0  0  0  3  0  0  0  0  0  0
    3.7359   13.5419   11.9190 C   0  0  0  0  0  0  0  0  0  0  0  0
    4.6218   14.5782   11.2796 C   0  0  0  0  0  0  0  0  0  0  0  0
    4.2671   14.7213    9.8167 C   0  0  0  0  0  3  0  0  0  0  0  0
    5.3685   15.4959    9.0841 C   0  0  1  0  0  0  0  0  0  0  0  0
    6.5136   15.7062    9.9177 N   0  0  0  0  0  0  0  0  0  0  0  0
    5.6619   14.7396    7.8200 C   0  0  0  0  0  0  0  0  0  0  0  0
    7.1020   14.9146    7.3611 C   0  0  2  0  0  0  0  0  0  0  0  0
    7.5982   16.0211    8.0647 F   0  0  0  0  0  0  0  0  0  0  0  0
    7.1222   15.2759    5.9134 C   0  0  1  0  0  0  0  0  0  0  0  0
    8.3973   15.4773    5.2726 C   0  0  0  0  0  0  0  0  0  0  0  0
    8.2101   14.5121    4.4305 C   0  0  0  0  0  0  0  0  0  0  0  0
    9.2428   13.8636    3.0996 S   0  0  0  0  0  0  0  0  0  0  0  0
    6.9118   14.1875    4.9634 C   0  0  2  0  0  0  0  0  0  0  0  0
    5.7250   14.3846    4.0413 C   0  0  0  0  0  0  0  0  0  0  0  0
    5.9141   13.4548    2.5009 S   0  0  0  0  0  0  0  0  0  0  0  0
    5.3519   11.7580    2.6994 C   0  0  1  0  0  0  0  0  0  0  0  0
    5.8785   10.9386    1.5555 C   0  0  0  0  0  0  0  0  0  0  0  0
    6.8885   12.8053    5.5916 C   0  0  0  0  0  0  0  0  0  0  0  0
    7.1353   11.8073    4.4689 C   0  0  0  0  0  0  0  0  0  0  0  0
    5.8172   11.2515    4.0468 C   0  0  2  0  0  0  0  0  0  0  0  0
    5.7682    9.7402    4.0593 C   0  0  0  0  0  3  0  0  0  0  0  0
    4.7236    9.3123    3.0494 C   0  0  0  0  0  0  0  0  0  0  0  0
    5.3733    9.2981    5.4507 C   0  0  2  0  0  0  0  0  0  0  0  0
    4.4859    8.0691    5.3988 C   0  0  0  0  0  0  0  0  0  0  0  0
    5.1739    6.9919    4.6117 C   0  0  0  0  0  3  0  0  0  0  0  0
    4.6558    6.9904    3.1829 C   0  0  0  0  0  0  0  0  0  0  0  0
    3.7074    5.8025    3.0564 C   0  0  0  0  0  0  0  0  0  0  0  0
    2.4977    5.9844    3.9193 C   0  0  0  0  0  0  0  0  0  0  0  0
    2.2769    4.7916    4.8202 C   0  0  0  0  0  0  0  0  0  0  0  0
    2.3088    5.1685    6.1718 O   0  0  0  0  0  1  0  0  0  0  0  0
  1  2  1  0
  2  3  1  1
  2  4  1  0
  4  5  1  0
  5  6  1  0
  6  7  1  0
  7  8  1  6
  7  9  1  0
  9 10  1  0
 10 11  1  0
 11 12  1  0
 12 13  1  0
 13 14  1  1
 13 15  1  0
 15 16  1  0
 16 17  1  1
 18 16  1  0
 18 19  1  6
 19 20  2  0
 20 21  1  0
 20 22  1  0
 22 23  1  6
 23 24  1  0
 24 25  1  0
 25 26  1  6
 22 27  1  0
 27 28  1  0
 28 29  1  0
 29 30  1  6
 30 31  1  0
 30 32  1  0
 32 33  1  6
 33 34  1  0
 34 35  1  0
 35 36  1  0
 36 37  1  0
 37 38  1  0
 38 39  1  0
 32  1  1  0
 22 18  1  0
 29 25  1  0
M  CHG  1  39  -1
M  RAD  4   9   2  12   2  30   2  34   2
M  END
>  <docking_score>  (2) 
-2.0760000000000001

$$$$

     RDKit          3D

 39 41  0  0  0  0  0  0  0  0999 V2000
    3.8664    8.4735    6.2799 C   0  0  0  0  0  0  0  0  0  0  0  0
    3.7854    9.0745    4.9051 C   0  0  1  0  0  0  0  0  0  0  0  0
    4.0185   10.5708    4.9783 C   0  0  0  0  0  0  0  0  0  0  0  0
    4.7639    8.4164    3.9521 C   0  0  0  0  0  0  0  0  0  0  0  0
    4.4995    8.9077    2.5470 C   0  0  0  0  0  0  0  0  0  0  0  0
    5.8288    9.2770    1.9225 C   0  0  0  0  0  0  0  0  0  0  0  0
    5.8933   10.7174    1.5088 C   0  0  1  0  0  0  0  0  0  0  0  0
    4.5354   11.3132    1.3014 C   0  0  0  0  0  0  0  0  0  0  0  0
    6.6644   11.4977    2.5424 C   0  0  0  0  0  3  0  0  0  0  0  0
    6.6801   12.9665    2.2167 C   0  0  0  0  0  0  0  0  0  0  0  0
    6.6118   13.8414    3.4405 C   0  0  0  0  0  0  0  0  0  0  0  0
    6.9240   13.0220    4.6724 C   0  0  0  0  0  3  0  0  0  0  0  0
    6.5207   13.7963    5.9324 C   0  0  1  0  0  0  0  0  0  0  0  0
    5.7890   14.9850    5.6132 N   0  0  0  0  0  0  0  0  0  0  0  0
    5.7732   12.8343    6.8108 C   0  0  0  0  0  0  0  0  0  0  0  0
    4.7415   13.5306    7.6860 C   0  0  2  0  0  0  0  0  0  0  0  0
    5.0707   14.8931    7.6589 F   0  0  0  0  0  0  0  0  0  0  0  0
    4.8978   13.0741    9.0981 C   0  0  1  0  0  0  0  0  0  0  0  0
    4.0046   13.6066   10.0959 C   0  0  0  0  0  0  0  0  0  0  0  0
    3.5174   12.4433   10.3874 C   0  0  0  0  0  0  0  0  0  0  0  0
    2.2576   11.9335   11.5754 S   0  0  0  0  0  0  0  0  0  0  0  0
    4.3478   11.7625    9.4274 C   0  0  2  0  0  0  0  0  0  0  0  0
    5.3632   10.7797    9.9761 C   0  0  0  0  0  0  0  0  0  0  0  0
    4.5785    9.5079   10.9959 S   0  0  0  0  0  0  0  0  0  0  0  0
    3.9658    8.1556    9.9808 C   0  0  1  0  0  0  0  0  0  0  0  0
    3.0012    7.3405   10.7947 C   0  0  0  0  0  0  0  0  0  0  0  0
    3.5266   11.1321    8.3165 C   0  0  0  0  0  0  0  0  0  0  0  0
    2.6698   10.0517    8.9613 C   0  0  0  0  0  0  0  0  0  0  0  0
    3.3361    8.7368    8.7341 C   0  0  2  0  0  0  0  0  0  0  0  0
    2.4318    7.7040    8.1002 C   0  0  0  0  0  3  0  0  0  0  0  0
    2.9428    6.3393    8.5134 C   0  0  0  0  0  0  0  0  0  0  0  0
    2.5153    7.8697    6.5991 C   0  0  2  0  0  0  0  0  0  0  0  0
    2.4392    6.5261    5.8993 C   0  0  0  0  0  0  0  0  0  0  0  0
    3.0414    5.4712    6.7813 C   0  0  0  0  0  3  0  0  0  0  0  0
    3.9903    4.6047    5.9698 C   0  0  0  0  0  0  0  0  0  0  0  0
    3.7278    4.9162    4.4998 C   0  0  0  0  0  0  0  0  0  0  0  0
    2.4150    4.3505    4.0551 C   0  0  0  0  0  0  0  0  0  0  0  0
    2.2576    4.4326    2.5546 C   0  0  0  0  0  0  0  0  0  0  0  0
    2.3874    5.7562    2.1062 O   0  0  0  0  0  1  0  0  0  0  0  0
  1  2  1  0
  2  3  1  1
  2  4  1  0
  4  5  1  0
  5  6  1  0
  6  7  1  0
  7  8  1  1
  7  9  1  0
  9 10  1  0
 10 11  1  0
 11 12  1  0
 12 13  1  0
 13 14  1  6
 13 15  1  0
 15 16  1  0
 16 17  1  1
 18 16  1  0
 18 19  1  1
 19 20  2  0
 20 21  1  0
 20 22  1  0
 22 23  1  1
 23 24  1  0
 24 25  1  0
 25 26  1  1
 22 27  1  0
 27 28  1  0
 28 29  1  0
 29 30  1  1
 30 31  1  0
 30 32  1  0
 32 33  1  6
 33 34  1  0
 34 35  1  0
 35 36  1  0
 36 37  1  0
 37 38  1  0
 38 39  1  0
 32  1  1  0
 22 18  1  0
 29 25  1  0
M  CHG  1  39  -1
M  RAD  4   9   2  12   2  30   2  34   2
M  END
>  <docking_score>  (3) 
-0.22500000000000001

$$$$
