
     RDKit          3D

 38 38  0  0  0  0  0  0  0  0999 V2000
   21.2219   -7.4759   -7.8029 O   0  0  0  0  0  0  0  0  0  0  0  0
   21.3825   -8.7440   -7.4236 O   0  0  0  0  0  0  0  0  0  0  0  0
   20.1023   -9.3343   -7.4730 C   0  0  0  0  0  3  0  0  0  0  0  0
   19.1891   -8.4696   -6.8411 O   0  0  0  0  0  0  0  0  0  0  0  0
   19.8062   -7.5389   -6.0631 C   0  0  2  0  0  0  0  0  0  0  0  0
   19.5204   -7.8325   -4.5981 C   0  0  0  0  0  0  0  0  0  0  0  0
   19.2307   -6.1499   -6.3707 C   0  0  0  0  0  3  0  0  0  0  0  0
   18.1464   -5.9388   -5.3912 C   0  0  1  0  0  0  0  0  0  0  0  0
   17.8584   -4.5200   -5.0851 C   0  0  0  0  0  3  0  0  0  0  0  0
   17.2404   -4.4276   -3.6778 C   0  0  0  0  0  3  0  0  0  0  0  0
   18.3955   -3.8578   -2.8117 C   0  0  1  0  0  0  0  0  0  0  0  0
   17.5408   -3.2322   -1.3053 S   0  0  0  0  0  0  0  0  0  0  0  0
   17.2257   -1.5580   -1.5351 O   0  0  0  0  0  1  0  0  0  0  0  0
   19.1873   -5.0691   -2.3471 C   0  0  0  0  0  0  0  0  0  0  0  0
   20.3538   -5.2667   -3.0473 O   0  0  0  0  0  0  0  0  0  0  0  0
   21.3825   -4.6513   -2.4551 O   0  0  0  0  0  0  0  0  0  0  0  0
   21.1905   -3.2838   -2.3941 C   0  0  2  0  0  0  0  0  0  0  0  0
   20.5440   -2.8283   -1.1286 C   0  0  0  0  0  0  0  0  0  0  0  0
   20.8476   -1.4746   -0.9034 O   0  0  0  0  0  1  0  0  0  0  0  0
   20.5065   -2.8907   -3.5276 O   0  0  0  0  0  0  0  0  0  0  0  0
   19.1593   -2.7837   -3.4171 C   0  0  1  0  0  0  0  0  0  0  0  0
   18.5486   -2.2798   -4.6867 C   0  0  0  0  0  0  0  0  0  0  0  0
   18.9220   -0.8402   -4.8812 C   0  0  0  0  0  0  0  0  0  0  0  0
   19.5118   -0.5630   -6.2544 C   0  0  0  0  0  3  0  0  0  0  0  0
   19.6751   -1.8400   -7.0542 C   0  0  0  0  0  2  0  0  0  0  0  0
   16.9256   -6.6463   -5.5464 N   0  0  0  0  0  0  0  0  0  0  0  0
   15.7367   -6.0096   -5.1668 C   0  0  2  0  0  0  0  0  0  0  0  0
   14.6852   -6.9310   -4.6594 C   0  0  0  0  0  0  0  0  0  0  0  0
   15.2353   -5.0794   -6.2178 C   0  0  1  0  0  0  0  0  0  0  0  0
   15.1126   -5.7674   -7.4567 O   0  0  0  0  0  1  0  0  0  0  0  0
   13.8083   -4.6807   -5.8262 C   0  0  0  0  0  0  0  0  0  0  0  0
   13.7938   -3.1769   -5.5545 C   0  0  2  0  0  0  0  0  0  0  0  0
   14.5103   -2.4127   -7.0636 S   0  0  0  0  0  0  0  0  0  0  0  0
   15.6501   -1.0905   -6.4905 C   0  0  0  0  0  0  0  0  0  0  0  0
   14.7827   -0.0151   -5.8616 C   0  0  0  0  0  0  0  0  0  0  0  0
   15.6426    1.1094   -5.3584 C   0  0  0  0  0  0  0  0  0  0  0  0
   14.7731   -2.7342   -4.1363 S   0  0  0  0  0  0  0  0  0  0  0  0
   14.3583   -1.2580   -3.4308 O   0  0  0  0  0  1  0  0  0  0  0  0
  1  2  1  0
  2  3  1  0
  3  4  1  0
  4  5  1  0
  5  6  1  1
  5  7  1  0
  8  7  1  6
  8  9  1  0
  9 10  1  0
 11 10  1  6
 11 12  1  0
 12 13  1  0
 11 14  1  0
 14 15  1  0
 15 16  1  0
 16 17  1  0
 17 18  1  1
 18 19  1  0
 17 20  1  0
 20 21  1  0
 21 22  1  6
 22 23  1  0
 23 24  1  0
 24 25  1  0
  8 26  1  0
 26 27  1  0
 27 28  1  6
 27 29  1  0
 29 30  1  6
 29 31  1  0
 32 31  1  6
 32 33  1  0
 33 34  1  0
 34 35  1  0
 35 36  1  0
 32 37  1  0
 37 38  1  0
 21 11  1  0
M  CHG  4  13  -1  19  -1  30  -1  38  -1
M  RAD  6   3   2   7   2   9   2  10   2  24   2  25   3
M  END
>  <docking_score>  (1) 
0.76400000000000001

$$$$

     RDKit          3D

 38 38  0  0  0  0  0  0  0  0999 V2000
   17.8193    4.8781   -7.8771 O   0  0  0  0  0  0  0  0  0  0  0  0
   17.0186    4.0782   -7.1722 O   0  0  0  0  0  0  0  0  0  0  0  0
   17.5547    4.0354   -5.8681 C   0  0  0  0  0  3  0  0  0  0  0  0
   17.1064    2.8576   -5.2414 O   0  0  0  0  0  0  0  0  0  0  0  0
   16.6835    1.9213   -6.1340 C   0  0  2  0  0  0  0  0  0  0  0  0
   15.6041    1.0615   -5.4939 C   0  0  0  0  0  0  0  0  0  0  0  0
   17.8510    0.9933   -6.4960 C   0  0  0  0  0  3  0  0  0  0  0  0
   17.9711    0.0426   -5.3729 C   0  0  1  0  0  0  0  0  0  0  0  0
   17.0374   -1.1039   -5.4321 C   0  0  0  0  0  3  0  0  0  0  0  0
   17.2598   -1.8621   -6.7537 C   0  0  0  0  0  3  0  0  0  0  0  0
   16.2456   -3.0343   -6.6738 C   0  0  1  0  0  0  0  0  0  0  0  0
   15.6800   -3.0004   -4.9216 S   0  0  0  0  0  0  0  0  0  0  0  0
   14.2536   -2.0438   -4.8467 O   0  0  0  0  0  1  0  0  0  0  0  0
   15.0444   -2.5853   -7.4895 C   0  0  0  0  0  0  0  0  0  0  0  0
   14.9835   -3.1538   -8.7397 O   0  0  0  0  0  0  0  0  0  0  0  0
   14.2643   -4.2808   -8.7231 O   0  0  0  0  0  0  0  0  0  0  0  0
   14.8253   -5.2300   -7.8892 C   0  0  2  0  0  0  0  0  0  0  0  0
   14.2900   -5.1914   -6.4967 C   0  0  0  0  0  0  0  0  0  0  0  0
   14.5351   -6.4212   -5.8621 O   0  0  0  0  0  1  0  0  0  0  0  0
   16.1990   -5.1023   -7.9488 O   0  0  0  0  0  0  0  0  0  0  0  0
   16.7807   -4.3459   -6.9854 C   0  0  1  0  0  0  0  0  0  0  0  0
   18.2711   -4.3495   -7.1178 C   0  0  0  0  0  0  0  0  0  0  0  0
   18.6670   -3.5234   -8.3054 C   0  0  0  0  0  0  0  0  0  0  0  0
   20.1735   -3.4248   -8.4810 C   0  0  0  0  0  3  0  0  0  0  0  0
   20.8845   -4.5894   -7.8211 C   0  0  0  0  0  2  0  0  0  0  0  0
   19.2584   -0.4153   -4.9879 N   0  0  0  0  0  0  0  0  0  0  0  0
   19.5438   -0.5200   -3.6202 C   0  0  2  0  0  0  0  0  0  0  0  0
   20.6924    0.3111   -3.1705 C   0  0  0  0  0  0  0  0  0  0  0  0
   19.6429   -1.9380   -3.1723 C   0  0  1  0  0  0  0  0  0  0  0  0
   18.3506   -2.4363   -2.8484 O   0  0  0  0  0  1  0  0  0  0  0  0
   20.1107   -2.7617   -4.3770 C   0  0  0  0  0  0  0  0  0  0  0  0
   19.8653   -4.2377   -4.0663 C   0  0  2  0  0  0  0  0  0  0  0  0
   19.2279   -4.2629   -2.3435 S   0  0  0  0  0  0  0  0  0  0  0  0
   18.1854   -5.7682   -2.1926 C   0  0  0  0  0  0  0  0  0  0  0  0
   16.7564   -5.3330   -2.4627 C   0  0  0  0  0  0  0  0  0  0  0  0
   16.5052   -3.9849   -1.8491 C   0  0  0  0  0  0  0  0  0  0  0  0
   21.3527   -5.2090   -4.1687 S   0  0  0  0  0  0  0  0  0  0  0  0
   21.3791   -6.5600   -3.1572 O   0  0  0  0  0  1  0  0  0  0  0  0
  1  2  1  0
  2  3  1  0
  3  4  1  0
  4  5  1  0
  5  6  1  1
  5  7  1  0
  8  7  1  6
  8  9  1  0
  9 10  1  0
 11 10  1  1
 11 12  1  0
 12 13  1  0
 11 14  1  0
 14 15  1  0
 15 16  1  0
 16 17  1  0
 17 18  1  1
 18 19  1  0
 17 20  1  0
 20 21  1  0
 21 22  1  6
 22 23  1  0
 23 24  1  0
 24 25  1  0
  8 26  1  0
 26 27  1  0
 27 28  1  6
 27 29  1  0
 29 30  1  6
 29 31  1  0
 32 31  1  1
 32 33  1  0
 33 34  1  0
 34 35  1  0
 35 36  1  0
 32 37  1  0
 37 38  1  0
 21 11  1  0
M  CHG  4  13  -1  19  -1  30  -1  38  -1
M  RAD  6   3   2   7   2   9   2  10   2  24   2  25   3
M  END
>  <docking_score>  (2) 
1.306

$$$$
