
     RDKit          3D

 29 32  0  0  0  0  0  0  0  0999 V2000
   16.1603   -2.1739   -2.7356 C   0  0  0  0  0  0  0  0  0  0  0  0
   15.6166   -1.1474   -3.5875 O   0  0  0  0  0  0  0  0  0  0  0  0
   14.5482   -1.5134   -4.3799 C   0  0  0  0  0  0  0  0  0  0  0  0
   14.7517   -1.7522   -5.6494 C   0  0  0  0  0  0  0  0  0  0  0  0
   16.0610   -1.6381   -6.2210 C   0  0  0  0  0  0  0  0  0  0  0  0
   16.9886   -2.5476   -6.3202 C   0  0  0  0  0  0  0  0  0  0  0  0
   18.5391   -2.0880   -7.0987 S   0  0  0  0  0  0  0  0  0  0  0  0
   19.7985   -2.1419   -5.7771 C   0  0  0  0  0  0  0  0  0  0  0  0
   19.5965   -1.2676   -4.8402 C   0  0  0  0  0  0  0  0  0  0  0  0
   20.3992   -1.0456   -3.6428 C   0  0  0  0  0  0  0  0  0  0  0  0
   19.7978   -1.0665   -2.4344 C   0  0  0  0  0  0  0  0  0  0  0  0
   20.6611   -0.8148   -0.9400 Cl  0  0  0  0  0  0  0  0  0  0  0  0
   18.3758   -1.2896   -2.4099 C   0  0  0  0  0  0  0  0  0  0  0  0
   17.6597   -2.2235   -2.9453 C   0  0  0  0  0  0  0  0  0  0  0  0
   18.1485   -3.3632   -3.7498 C   0  0  0  0  0  0  0  0  0  0  0  0
   16.8037   -3.8953   -5.8243 C   0  0  2  0  0  0  0  0  0  0  0  0
   17.0522   -4.1476   -4.3809 C   0  0  2  0  0  0  0  0  0  0  0  0
   15.8920   -4.3293   -3.5957 O   0  0  0  0  0  0  0  0  0  0  0  0
   16.1228   -5.6708   -3.5102 C   0  0  0  0  0  0  0  0  0  0  0  0
   17.2160   -5.6300   -4.2271 C   0  0  0  0  0  0  0  0  0  0  0  0
   18.3857   -6.2505   -4.8778 C   0  0  0  0  0  0  0  0  0  0  0  0
   18.2333   -7.7500   -4.9802 C   0  0  0  0  0  0  0  0  0  0  0  0
   17.1439   -8.0622   -5.9706 C   0  0  0  0  0  0  0  0  0  0  0  0
   17.4574   -7.4921   -7.2700 N   0  0  0  0  0  0  0  0  0  0  0  0
   18.8008   -7.3237   -7.6324 C   0  0  0  0  0  0  0  0  0  0  0  0
   19.2599   -6.3060   -8.3052 C   0  0  0  0  0  0  0  0  0  0  0  0
   17.4026   -4.8903   -6.6400 O   0  0  0  0  0  0  0  0  0  0  0  0
   17.5392   -4.5907   -7.9892 C   0  0  0  0  0  0  0  0  0  0  0  0
   18.3924   -5.2459   -8.7396 C   0  0  0  0  0  0  0  0  0  0  0  0
  1  2  1  0
  2  3  1  0
  3  4  2  3
  4  5  1  0
  5  6  2  3
  6  7  1  0
  7  8  1  0
  8  9  2  3
  9 10  1  0
 10 11  2  3
 11 12  1  0
 11 13  1  0
 13 14  2  3
 14 15  1  0
  6 16  1  0
 16 17  1  0
 17 18  1  1
 18 19  1  0
 19 20  2  0
 20 21  1  0
 21 22  1  0
 22 23  1  0
 23 24  1  0
 24 25  1  0
 25 26  2  3
 16 27  1  6
 27 28  1  0
 28 29  2  3
 14  1  1  0
 17 15  1  0
 20 17  1  0
 29 26  1  0
M  END
>  <docking_score>  (1) 
-6.5890000000000004

$$$$

     RDKit          3D

 29 32  0  0  0  0  0  0  0  0999 V2000
   14.7282   -2.6859   -5.5604 C   0  0  0  0  0  0  0  0  0  0  0  0
   15.1989   -1.6799   -6.4778 O   0  0  0  0  0  0  0  0  0  0  0  0
   15.2586   -2.0450   -7.8069 C   0  0  0  0  0  0  0  0  0  0  0  0
   16.4185   -2.3446   -8.3316 C   0  0  0  0  0  0  0  0  0  0  0  0
   17.6171   -2.2976   -7.5475 C   0  0  0  0  0  0  0  0  0  0  0  0
   18.1577   -3.2401   -6.8282 C   0  0  0  0  0  0  0  0  0  0  0  0
   19.6796   -2.8647   -5.9541 S   0  0  0  0  0  0  0  0  0  0  0  0
   19.2590   -2.9024   -4.1772 C   0  0  0  0  0  0  0  0  0  0  0  0
   18.4123   -1.9825   -3.8309 C   0  0  0  0  0  0  0  0  0  0  0  0
   17.8611   -1.7353   -2.5034 C   0  0  0  0  0  0  0  0  0  0  0  0
   16.5213   -1.6847   -2.3462 C   0  0  0  0  0  0  0  0  0  0  0  0
   15.7564   -1.3971   -0.8054 Cl  0  0  0  0  0  0  0  0  0  0  0  0
   15.7126   -1.8605   -3.5243 C   0  0  0  0  0  0  0  0  0  0  0  0
   15.7193   -2.7929   -4.4199 C   0  0  0  0  0  0  0  0  0  0  0  0
   16.5976   -3.9814   -4.4546 C   0  0  0  0  0  0  0  0  0  0  0  0
   17.5696   -4.5585   -6.7167 C   0  0  2  0  0  0  0  0  0  0  0  0
   16.4848   -4.7563   -5.7203 C   0  0  2  0  0  0  0  0  0  0  0  0
   15.1853   -4.8665   -6.2630 O   0  0  0  0  0  0  0  0  0  0  0  0
   15.1677   -6.2098   -6.0278 C   0  0  0  0  0  0  0  0  0  0  0  0
   16.3661   -6.2353   -5.5044 C   0  0  0  0  0  0  0  0  0  0  0  0
   17.5153   -6.9207   -4.8830 C   0  0  0  0  0  0  0  0  0  0  0  0
   17.4372   -8.4175   -5.0719 C   0  0  0  0  0  0  0  0  0  0  0  0
   17.6540   -8.7366   -6.5267 C   0  0  0  0  0  0  0  0  0  0  0  0
   18.9422   -8.2333   -6.9727 N   0  0  0  0  0  0  0  0  0  0  0  0
   19.9876   -8.1242   -6.0454 C   0  0  0  0  0  0  0  0  0  0  0  0
   20.8554   -7.1518   -6.0253 C   0  0  0  0  0  0  0  0  0  0  0  0
   18.5252   -5.6064   -6.6649 O   0  0  0  0  0  0  0  0  0  0  0  0
   19.7440   -5.3698   -7.2872 C   0  0  0  0  0  0  0  0  0  0  0  0
   20.8020   -6.0839   -6.9854 C   0  0  0  0  0  0  0  0  0  0  0  0
  1  2  1  0
  2  3  1  0
  3  4  2  3
  4  5  1  0
  5  6  2  3
  6  7  1  0
  7  8  1  0
  8  9  2  3
  9 10  1  0
 10 11  2  3
 11 12  1  0
 11 13  1  0
 13 14  2  3
 14 15  1  0
  6 16  1  0
 16 17  1  0
 17 18  1  6
 18 19  1  0
 19 20  2  0
 20 21  1  0
 21 22  1  0
 22 23  1  0
 23 24  1  0
 24 25  1  0
 25 26  2  3
 16 27  1  1
 27 28  1  0
 28 29  2  3
 14  1  1  0
 17 15  1  0
 20 17  1  0
 29 26  1  0
M  END
>  <docking_score>  (2) 
-6.2569999999999997

$$$$

     RDKit          3D

 29 32  0  0  0  0  0  0  0  0999 V2000
   16.1956   -5.3956   -7.9894 C   0  0  0  0  0  0  0  0  0  0  0  0
   15.0285   -5.7041   -7.2035 O   0  0  0  0  0  0  0  0  0  0  0  0
   14.2332   -4.6353   -6.8451 C   0  0  0  0  0  0  0  0  0  0  0  0
   14.3088   -4.1684   -5.6259 C   0  0  0  0  0  0  0  0  0  0  0  0
   15.2007   -4.7503   -4.6669 C   0  0  0  0  0  0  0  0  0  0  0  0
   16.4447   -4.4487   -4.4233 C   0  0  0  0  0  0  0  0  0  0  0  0
   17.3001   -5.3715   -3.1435 S   0  0  0  0  0  0  0  0  0  0  0  0
   18.5793   -6.3517   -4.0028 C   0  0  0  0  0  0  0  0  0  0  0  0
   18.0882   -7.2373   -4.8138 C   0  0  0  0  0  0  0  0  0  0  0  0
   18.8214   -8.1753   -5.6563 C   0  0  0  0  0  0  0  0  0  0  0  0
   18.5603   -8.2132   -6.9802 C   0  0  0  0  0  0  0  0  0  0  0  0
   19.3779   -9.2935   -8.0785 Cl  0  0  0  0  0  0  0  0  0  0  0  0
   17.5426   -7.3242   -7.4768 C   0  0  0  0  0  0  0  0  0  0  0  0
   17.3969   -6.0472   -7.3359 C   0  0  0  0  0  0  0  0  0  0  0  0
   18.2923   -5.1294   -6.6005 C   0  0  0  0  0  0  0  0  0  0  0  0
   17.1422   -3.4077   -5.1487 C   0  0  2  0  0  0  0  0  0  0  0  0
   17.7386   -3.7545   -6.4650 C   0  0  2  0  0  0  0  0  0  0  0  0
   17.0427   -3.2557   -7.5886 O   0  0  0  0  0  0  0  0  0  0  0  0
   18.0001   -2.3074   -7.7990 C   0  0  0  0  0  0  0  0  0  0  0  0
   18.7334   -2.6782   -6.7814 C   0  0  0  0  0  0  0  0  0  0  0  0
   19.9128   -2.5700   -5.9017 C   0  0  0  0  0  0  0  0  0  0  0  0
   20.6170   -1.2451   -6.0781 C   0  0  0  0  0  0  0  0  0  0  0  0
   19.7396   -0.1509   -5.5320 C   0  0  0  0  0  0  0  0  0  0  0  0
   19.4428   -0.3874   -4.1293 N   0  0  0  0  0  0  0  0  0  0  0  0
   20.3685   -1.0925   -3.3480 C   0  0  0  0  0  0  0  0  0  0  0  0
   20.0472   -1.9511   -2.4213 C   0  0  0  0  0  0  0  0  0  0  0  0
   18.0429   -2.6595   -4.3469 O   0  0  0  0  0  0  0  0  0  0  0  0
   17.7471   -2.5725   -2.9928 C   0  0  0  0  0  0  0  0  0  0  0  0
   18.6732   -2.2475   -2.1226 C   0  0  0  0  0  0  0  0  0  0  0  0
  1  2  1  0
  2  3  1  0
  3  4  2  3
  4  5  1  0
  5  6  2  3
  6  7  1  0
  7  8  1  0
  8  9  2  3
  9 10  1  0
 10 11  2  3
 11 12  1  0
 11 13  1  0
 13 14  2  3
 14 15  1  0
  6 16  1  0
 16 17  1  0
 17 18  1  6
 18 19  1  0
 19 20  2  0
 20 21  1  0
 21 22  1  0
 22 23  1  0
 23 24  1  0
 24 25  1  0
 25 26  2  3
 16 27  1  1
 27 28  1  0
 28 29  2  3
 14  1  1  0
 17 15  1  0
 20 17  1  0
 29 26  1  0
M  END
>  <docking_score>  (3) 
-5.7690000000000001

$$$$
