
     RDKit          3D

 23 25  0  0  0  0  0  0  0  0999 V2000
   18.8006   -5.2094   -3.4696 C   0  0  0  0  0  0  0  0  0  0  0  0
   18.6573   -4.0680   -2.4922 C   0  0  1  0  0  0  0  0  0  0  0  0
   19.8358   -3.7560   -1.7019 C   0  0  0  0  0  0  0  0  0  0  0  0
   20.5266   -2.4803   -1.9095 C   0  0  2  0  0  0  0  0  0  0  0  0
   20.8854   -1.9569   -0.6454 O   0  0  0  0  0  0  0  0  0  0  0  0
   19.7860   -1.4223   -2.6357 C   0  0  2  0  0  0  0  0  0  0  0  0
   18.8716   -0.8388   -1.7286 O   0  0  0  0  0  0  0  0  0  0  0  0
   18.9471   -2.0142   -3.7753 C   0  0  1  0  0  0  0  0  0  0  0  0
   19.8433   -2.6920   -4.6041 O   0  0  0  0  0  0  0  0  0  0  0  0
   17.9496   -2.9158   -3.1305 C   0  0  1  0  0  0  0  0  0  0  0  0
   16.8989   -3.2841   -3.9935 N   0  0  0  0  0  0  0  0  0  0  0  0
   17.1806   -3.1787   -5.3966 C   0  0  0  0  0  3  0  0  0  0  0  0
   16.0605   -2.7366   -6.2417 C   0  0  2  0  0  0  0  0  0  0  0  0
   15.5861   -1.3728   -6.0483 C   0  0  0  0  0  0  0  0  0  0  0  0
   14.4913   -0.9838   -6.3477 O   0  0  0  0  0  0  0  0  0  0  0  0
   15.1160   -3.6651   -6.5633 O   0  0  0  0  0  0  0  0  0  0  0  0
   14.5221   -4.2374   -5.4620 C   0  0  1  0  0  0  0  0  0  0  0  0
   13.3358   -4.8937   -5.7603 O   0  0  0  0  0  0  0  0  0  0  0  0
   15.5374   -5.1539   -4.8152 C   0  0  2  0  0  0  0  0  0  0  0  0
   14.9879   -6.3477   -4.3901 O   0  0  0  0  0  0  0  0  0  0  0  0
   16.1009   -4.3838   -3.6169 C   0  0  1  0  0  0  0  0  0  0  0  0
   16.6687   -5.2982   -2.7779 O   0  0  0  0  0  0  0  0  0  0  0  0
   17.6334   -5.9786   -3.3655 O   0  0  0  0  0  0  0  0  0  0  0  0
  2  1  1  6
  2  3  1  0
  3  4  1  0
  4  5  1  1
  4  6  1  0
  6  7  1  1
  6  8  1  0
  8  9  1  6
  8 10  1  0
 10 11  1  6
 11 12  1  0
 12 13  1  0
 13 14  1  1
 14 15  2  0
 13 16  1  0
 16 17  1  0
 17 18  1  6
 17 19  1  0
 19 20  1  1
 19 21  1  0
 21 22  1  6
 22 23  1  0
 23  1  1  0
 10  2  1  0
 21 11  1  0
M  RAD  1  12   2
M  END
>  <docking_score>  (1) 
-5.7919999999999998

$$$$

     RDKit          3D

 23 25  0  0  0  0  0  0  0  0999 V2000
   16.3780   -1.9061   -2.3314 C   0  0  0  0  0  0  0  0  0  0  0  0
   17.7695   -1.9331   -2.9159 C   0  0  1  0  0  0  0  0  0  0  0  0
   18.8115   -1.3264   -2.1052 C   0  0  0  0  0  0  0  0  0  0  0  0
   19.8644   -2.1706   -1.5339 C   0  0  2  0  0  0  0  0  0  0  0  0
   21.1001   -1.4962   -1.6715 O   0  0  0  0  0  0  0  0  0  0  0  0
   20.0300   -3.5254   -2.1103 C   0  0  2  0  0  0  0  0  0  0  0  0
   20.7296   -3.3897   -3.3316 O   0  0  0  0  0  0  0  0  0  0  0  0
   18.6731   -4.1514   -2.4561 C   0  0  1  0  0  0  0  0  0  0  0  0
   17.9418   -4.1717   -1.2668 O   0  0  0  0  0  0  0  0  0  0  0  0
   18.0673   -3.2766   -3.5009 C   0  0  1  0  0  0  0  0  0  0  0  0
   16.9781   -3.8780   -4.1614 N   0  0  0  0  0  0  0  0  0  0  0  0
   16.3286   -4.9409   -3.4489 C   0  0  0  0  0  3  0  0  0  0  0  0
   15.8454   -6.0602   -4.2723 C   0  0  2  0  0  0  0  0  0  0  0  0
   16.8545   -6.8754   -4.9353 C   0  0  0  0  0  0  0  0  0  0  0  0
   17.9731   -6.5132   -5.1743 O   0  0  0  0  0  0  0  0  0  0  0  0
   14.6752   -5.8797   -4.9473 O   0  0  0  0  0  0  0  0  0  0  0  0
   14.7030   -4.8007   -5.8006 C   0  0  1  0  0  0  0  0  0  0  0  0
   13.6820   -4.8214   -6.7409 O   0  0  0  0  0  0  0  0  0  0  0  0
   14.6799   -3.5452   -4.9566 C   0  0  2  0  0  0  0  0  0  0  0  0
   13.8568   -2.5652   -5.4760 O   0  0  0  0  0  0  0  0  0  0  0  0
   16.1253   -3.0400   -4.9086 C   0  0  1  0  0  0  0  0  0  0  0  0
   16.0833   -1.7246   -4.5476 O   0  0  0  0  0  0  0  0  0  0  0  0
   15.5098   -1.5507   -3.3729 O   0  0  0  0  0  0  0  0  0  0  0  0
  2  1  1  1
  2  3  1  0
  3  4  1  0
  4  5  1  6
  4  6  1  0
  6  7  1  6
  6  8  1  0
  8  9  1  1
  8 10  1  0
 10 11  1  1
 11 12  1  0
 12 13  1  0
 13 14  1  6
 14 15  2  0
 13 16  1  0
 16 17  1  0
 17 18  1  6
 17 19  1  0
 19 20  1  6
 19 21  1  0
 21 22  1  1
 22 23  1  0
 23  1  1  0
 10  2  1  0
 21 11  1  0
M  RAD  1  12   2
M  END
>  <docking_score>  (2) 
-5.6390000000000002

$$$$

     RDKit          3D

 23 25  0  0  0  0  0  0  0  0999 V2000
   16.3175   -2.2062   -4.9222 C   0  0  0  0  0  0  0  0  0  0  0  0
   15.3909   -3.3314   -4.5299 C   0  0  1  0  0  0  0  0  0  0  0  0
   14.2182   -3.5111   -5.3687 C   0  0  0  0  0  0  0  0  0  0  0  0
   14.0951   -4.7207   -6.1870 C   0  0  2  0  0  0  0  0  0  0  0  0
   12.7583   -5.1764   -6.1103 O   0  0  0  0  0  0  0  0  0  0  0  0
   14.9750   -5.8615   -5.8415 C   0  0  2  0  0  0  0  0  0  0  0  0
   14.4187   -6.5061   -4.7125 O   0  0  0  0  0  0  0  0  0  0  0  0
   16.3694   -5.3800   -5.4214 C   0  0  1  0  0  0  0  0  0  0  0  0
   16.8645   -4.6413   -6.4979 O   0  0  0  0  0  0  0  0  0  0  0  0
   16.1718   -4.5608   -4.1911 C   0  0  1  0  0  0  0  0  0  0  0  0
   17.3702   -4.3148   -3.4928 N   0  0  0  0  0  0  0  0  0  0  0  0
   18.5744   -4.4278   -4.2650 C   0  0  0  0  0  3  0  0  0  0  0  0
   19.7347   -4.9946   -3.5601 C   0  0  2  0  0  0  0  0  0  0  0  0
   19.6444   -6.3918   -3.1577 C   0  0  0  0  0  0  0  0  0  0  0  0
   18.8910   -7.1919   -3.6393 O   0  0  0  0  0  0  0  0  0  0  0  0
   20.4219   -4.1676   -2.7225 O   0  0  0  0  0  0  0  0  0  0  0  0
   19.6365   -3.6268   -1.7306 C   0  0  1  0  0  0  0  0  0  0  0  0
   20.3721   -3.0931   -0.6814 O   0  0  0  0  0  0  0  0  0  0  0  0
   18.7254   -2.6028   -2.3714 C   0  0  2  0  0  0  0  0  0  0  0  0
   18.5909   -1.4561   -1.6133 O   0  0  0  0  0  0  0  0  0  0  0  0
   17.3635   -3.2863   -2.5283 C   0  0  1  0  0  0  0  0  0  0  0  0
   16.4312   -2.3019   -2.6841 O   0  0  0  0  0  0  0  0  0  0  0  0
   16.6771   -1.5483   -3.7379 O   0  0  0  0  0  0  0  0  0  0  0  0
  2  1  1  6
  2  3  1  0
  3  4  1  0
  4  5  1  1
  4  6  1  0
  6  7  1  1
  6  8  1  0
  8  9  1  6
  8 10  1  0
 10 11  1  6
 11 12  1  0
 12 13  1  0
 13 14  1  1
 14 15  2  0
 13 16  1  0
 16 17  1  0
 17 18  1  1
 17 19  1  0
 19 20  1  1
 19 21  1  0
 21 22  1  6
 22 23  1  0
 23  1  1  0
 10  2  1  0
 21 11  1  0
M  RAD  1  12   2
M  END
>  <docking_score>  (3) 
-5.4550000000000001

$$$$
