
     RDKit          3D

 69 77  0  0  0  0  0  0  0  0999 V2000
   10.6860   11.4165    7.7246 C   0  0  0  0  0  0  0  0  0  0  0  0
   11.7195   10.5350    7.1119 C   0  0  0  0  0  3  0  0  0  0  0  0
   12.2781    9.5383    8.0928 C   0  0  0  0  0  0  0  0  0  0  0  0
   12.1003    9.9786    9.5273 C   0  0  2  0  0  0  0  0  0  0  0  0
   12.7366    8.9506   10.3944 C   0  0  0  0  0  0  0  0  0  0  0  0
   13.6971    8.3179   10.0106 O   0  0  0  0  0  0  0  0  0  0  0  0
   10.6735   10.1805    9.9208 C   0  0  0  0  0  0  0  0  0  0  0  0
   10.3662   11.5528   10.0815 O   0  0  0  0  0  0  0  0  0  0  0  0
   10.8641   12.1963    8.9790 C   0  0  2  0  0  0  0  0  0  0  0  0
   10.5375   13.6318    8.8466 C   0  0  0  0  0  0  0  0  0  0  0  0
   10.1576   14.3341   10.0941 C   0  0  0  0  0  0  0  0  0  0  0  0
   10.5340   13.6247   11.3474 C   0  0  1  0  0  0  0  0  0  0  0  0
   11.8978   14.0733   11.7722 C   0  0  0  0  0  0  0  0  0  0  0  0
    9.4942   13.8193   12.4639 C   0  0  1  0  0  0  0  0  0  0  0  0
   10.1328   14.8566   13.3962 C   0  0  0  0  0  0  0  0  0  0  0  0
   10.1740   16.0203   12.4368 C   0  0  0  0  0  0  0  0  0  0  0  0
    9.1846   15.9241   11.5692 C   0  0  0  0  0  0  0  0  0  0  0  0
    8.4113   14.7054   11.8719 C   0  0  2  0  0  0  0  0  0  0  0  0
    7.3346   15.0553   12.8600 C   0  0  0  0  0  0  0  0  0  0  0  0
    7.9198   15.0091   14.2399 C   0  0  0  0  0  3  0  0  0  0  0  0
    7.1350   16.0508   15.4452 S   0  0  0  0  0  0  0  0  0  0  0  0
    7.2507   15.5060   17.1423 C   0  0  0  0  0  0  0  0  0  0  0  0
    8.5125   16.0375   17.7206 C   0  0  0  0  0  0  0  0  0  0  0  0
    9.5707   15.9886   17.1229 O   0  0  0  0  0  0  0  0  0  0  0  0
    9.0076   12.4895   13.1375 S   0  0  1  0  0  0  0  0  0  0  0  0
    9.8516   12.2069   15.0350 C   0  0  0  0  0  0  0  0  0  0  0  0
    9.0765   10.8859   15.0991 C   0  0  0  0  0  3  0  0  0  0  0  0
    7.6284   11.2327   14.8276 C   0  0  0  0  0  0  0  0  0  0  0  0
    7.6862   11.8562   13.4211 C   0  0  1  0  0  0  0  0  0  0  0  0
    6.2904   12.3799   13.1588 C   0  0  1  0  0  0  0  0  0  0  0  0
    6.1787   13.1613   12.0391 O   0  0  0  0  0  0  0  0  0  0  0  0
    7.0360   12.8629   11.0100 C   0  0  0  0  0  0  0  0  0  0  0  0
    7.8613   14.0391   10.6371 C   0  0  1  0  0  0  0  0  0  0  0  0
    7.2738   14.9714    9.6499 C   0  0  0  0  0  3  0  0  0  0  0  0
    6.7985   14.1930    8.4562 C   0  0  0  0  0  3  0  0  0  0  0  0
    5.9381   13.0169    8.8960 C   0  0  0  0  0  3  0  0  0  0  0  0
    4.5065   13.4918    9.0640 C   0  0  0  0  0  3  0  0  0  0  0  0
    3.5385   12.3322    9.0937 C   0  0  0  0  0  2  0  0  0  0  0  0
    4.2438   11.1732    9.7975 C   0  0  0  0  0  0  0  0  0  0  0  0
    3.3667   10.5828   10.8573 C   0  0  0  0  0  0  0  0  0  0  0  0
    3.1364   11.3033   11.9374 C   0  0  0  0  0  0  0  0  0  0  0  0
    2.2666   10.7681   13.0342 C   0  0  0  0  0  0  0  0  0  0  0  0
    3.0134   10.8961   14.3647 C   0  0  0  0  0  3  0  0  0  0  0  0
    4.1920   11.8058   14.2529 C   0  0  0  0  0  0  0  0  0  0  0  0
    5.2377   11.3039   13.2682 C   0  0  0  0  0  3  0  0  0  0  0  0
    7.9340   13.7206    7.5666 C   0  0  0  0  0  0  0  0  0  0  0  0
    7.7280   12.3183    7.1100 C   0  0  2  0  0  0  0  0  0  0  0  0
    9.3224   11.3642    6.7572 Si  0  0  0  0  0  4  0  0  0  0  0  0
    9.1337   11.1950    4.8752 C   0  0  0  0  0  3  0  0  0  0  0  0
    8.1927   12.3983    4.7097 C   0  0  0  0  0  0  0  0  0  0  0  0
    7.1153   12.2439    5.7351 C   0  0  2  0  0  0  0  0  0  0  0  0
    6.1037   13.3333    5.5109 C   0  0  0  0  0  0  0  0  0  0  0  0
    6.7429   14.5075    4.7574 C   0  0  0  0  0  3  0  0  0  0  0  0
    6.2797   14.4207    3.3200 C   0  0  0  0  0  3  0  0  0  0  0  0
    5.2435   15.5072    3.1063 C   0  0  0  0  0  2  0  0  0  0  0  0
    7.4166   14.5366    2.3399 C   0  0  0  0  0  0  0  0  0  0  0  0
    7.1653   13.6420    1.1577 C   0  0  0  0  0  0  0  0  0  0  0  0
    7.7017   12.2463    1.3488 C   0  0  0  0  0  3  0  0  0  0  0  0
    6.6417   11.2684    1.7660 C   0  0  2  0  0  0  0  0  0  0  0  0
    5.3185   12.0292    1.8976 C   0  0  1  0  0  0  0  0  0  0  0  0
    4.9590   12.4621    0.6271 O   0  0  0  0  0  0  0  0  0  0  0  0
    4.1278   10.6074    2.1969 S   0  0  2  0  0  0  0  0  0  0  0  0
    4.7111   10.0932    3.8512 C   0  0  0  0  0  3  0  0  0  0  0  0
    3.7720    9.6062    1.0293 C   0  0  0  0  0  3  0  0  0  0  0  0
    2.3198    9.1205    0.9854 C   0  0  0  0  0  2  0  0  0  0  0  0
    6.9788   10.5550    3.0614 C   0  0  0  0  0  0  0  0  0  0  0  0
    5.9403   10.9071    4.0772 C   0  0  2  0  0  0  0  0  0  0  0  0
    6.4357   10.9103    5.4878 C   0  0  1  0  0  0  0  0  0  0  0  0
    7.4021    9.7789    5.7198 C   0  0  0  0  0  2  0  0  0  0  0  0
  1  2  1  0
  2  3  1  0
  3  4  1  0
  4  5  1  1
  5  6  2  0
  4  7  1  0
  7  8  1  0
  8  9  1  0
  9 10  1  6
 10 11  1  0
 11 12  1  0
 12 13  1  1
 12 14  1  0
 14 15  1  1
 15 16  1  0
 16 17  2  0
 17 18  1  0
 18 19  1  1
 19 20  1  0
 20 21  1  0
 21 22  1  0
 22 23  1  0
 23 24  2  0
 14 25  1  0
 25 26  1  1
 26 27  1  0
 27 28  1  0
 29 28  1  1
 29 30  1  0
 30 31  1  0
 31 32  1  0
 33 32  1  1
 33 34  1  0
 34 35  1  0
 35 36  1  0
 36 37  1  0
 37 38  1  0
 38 39  1  0
 39 40  1  0
 40 41  2  3
 41 42  1  0
 42 43  1  0
 43 44  1  0
 44 45  1  0
 35 46  1  0
 47 46  1  6
 47 48  1  0
 48 49  1  0
 49 50  1  0
 51 50  1  6
 51 52  1  0
 52 53  1  0
 53 54  1  0
 54 55  1  0
 54 56  1  0
 56 57  1  0
 57 58  1  0
 59 58  1  1
 59 60  1  0
 60 61  1  6
 60 62  1  0
 62 63  1  0
 62 64  1  6
 64 65  1  0
 59 66  1  0
 66 67  1  0
 67 68  1  0
 68 69  1  6
  9  1  1  0
  1 48  2  3
 18 14  1  0
 33 18  1  0
 29 25  1  0
 30 45  1  6
 51 47  1  0
 68 51  1  0
 67 63  1  1
M  RAD  8   2   2  20   2  27   2  34   2  35   2  36   2  37   2  38   3
M  RAD  8  43   2  45   2  49   2  53   2  54   2  55   3  58   2  63   2
M  RAD  3  64   2  65   3  69   3
M  END
>  <docking_score>  (1) 
96.238

$$$$
