
     RDKit          3D

 16 17  0  0  0  0  0  0  0  0999 V2000
   19.8943   -3.3668   -0.9193 C   0  0  0  0  0  0  0  0  0  0  0  0
   19.0656   -4.0739   -1.8503 O   0  0  0  0  0  0  0  0  0  0  0  0
   18.2078   -3.3574   -2.6501 C   0  0  0  0  0  0  0  0  0  0  0  0
   16.9516   -3.1974   -2.2821 C   0  0  0  0  0  0  0  0  0  0  0  0
   15.9946   -2.4500   -3.0844 C   0  0  0  0  0  0  0  0  0  0  0  0
   15.3670   -2.6280   -4.2373 C   0  0  0  0  0  0  0  0  0  0  0  0
   14.7524   -1.3362   -3.9915 C   0  0  0  0  0  0  0  0  0  0  0  0
   13.7844   -0.4685   -4.6986 C   0  0  0  0  0  0  0  0  0  0  0  0
   15.3757   -1.1906   -2.8760 N   0  0  0  0  0  0  0  0  0  0  0  0
   15.3595   -3.6331   -5.1915 O   0  0  0  0  0  0  0  0  0  0  0  0
   16.4355   -4.2430   -5.6401 O   0  0  0  0  0  0  0  0  0  0  0  0
   16.3734   -5.6271   -5.5718 C   0  0  1  0  0  0  0  0  0  0  0  0
   16.0082   -6.3639   -6.6885 O   0  0  0  0  0  0  0  0  0  0  0  0
   15.7827   -5.6244   -7.7775 N   0  0  0  0  0  0  0  0  0  0  0  0
   17.1626   -6.3096   -4.4696 C   0  0  0  0  0  0  0  0  0  0  0  0
   15.7757   -6.1846   -4.3851 O   0  0  0  0  0  0  0  0  0  0  0  0
  1  2  1  0
  2  3  1  0
  3  4  2  3
  4  5  1  0
  5  6  2  0
  6  7  1  0
  7  8  1  0
  7  9  2  0
  6 10  1  0
 10 11  1  0
 12 11  1  6
 12 13  1  0
 13 14  1  0
 12 15  1  0
 15 16  1  0
  9  5  1  0
 16 12  1  0
M  END
>  <docking_score>  (1) 
-3.7589999999999999

$$$$

     RDKit          3D

 16 17  0  0  0  0  0  0  0  0999 V2000
   13.7604    0.1901   -4.5413 C   0  0  0  0  0  0  0  0  0  0  0  0
   14.0250   -0.6404   -5.6787 O   0  0  0  0  0  0  0  0  0  0  0  0
   14.8922   -1.6975   -5.5394 C   0  0  0  0  0  0  0  0  0  0  0  0
   14.4289   -2.8800   -5.1842 C   0  0  0  0  0  0  0  0  0  0  0  0
   15.2951   -4.0380   -5.0199 C   0  0  0  0  0  0  0  0  0  0  0  0
   15.9481   -4.6102   -4.0194 C   0  0  0  0  0  0  0  0  0  0  0  0
   16.4013   -5.5814   -4.9983 C   0  0  0  0  0  0  0  0  0  0  0  0
   17.2635   -6.7841   -4.9811 C   0  0  0  0  0  0  0  0  0  0  0  0
   15.7569   -5.0044   -5.9501 N   0  0  0  0  0  0  0  0  0  0  0  0
   16.0833   -4.3359   -2.6677 O   0  0  0  0  0  0  0  0  0  0  0  0
   17.2114   -3.9879   -2.0870 O   0  0  0  0  0  0  0  0  0  0  0  0
   17.6582   -2.7199   -2.4289 C   0  0  1  0  0  0  0  0  0  0  0  0
   16.7473   -1.7102   -2.7007 O   0  0  0  0  0  0  0  0  0  0  0  0
   16.0548   -1.3015   -1.6344 N   0  0  0  0  0  0  0  0  0  0  0  0
   19.0709   -2.3424   -2.0222 C   0  0  0  0  0  0  0  0  0  0  0  0
   18.7669   -2.6564   -3.3471 O   0  0  0  0  0  0  0  0  0  0  0  0
  1  2  1  0
  2  3  1  0
  3  4  2  3
  4  5  1  0
  5  6  2  0
  6  7  1  0
  7  8  1  0
  7  9  2  0
  6 10  1  0
 10 11  1  0
 12 11  1  1
 12 13  1  0
 13 14  1  0
 12 15  1  0
 15 16  1  0
  9  5  1  0
 16 12  1  0
M  END
>  <docking_score>  (2) 
-3.4849999999999999

$$$$

     RDKit          3D

 16 17  0  0  0  0  0  0  0  0999 V2000
   20.3696   -1.7441   -1.7953 C   0  0  0  0  0  0  0  0  0  0  0  0
   19.9317   -2.8420   -0.9850 O   0  0  0  0  0  0  0  0  0  0  0  0
   19.0172   -3.7258   -1.5057 C   0  0  0  0  0  0  0  0  0  0  0  0
   18.3844   -3.4281   -2.6237 C   0  0  0  0  0  0  0  0  0  0  0  0
   17.4054   -4.3212   -3.2255 C   0  0  0  0  0  0  0  0  0  0  0  0
   16.1726   -4.2110   -3.6976 C   0  0  0  0  0  0  0  0  0  0  0  0
   16.2612   -5.6300   -3.9900 C   0  0  0  0  0  0  0  0  0  0  0  0
   15.3694   -6.6497   -4.5857 C   0  0  0  0  0  0  0  0  0  0  0  0
   17.4577   -5.7069   -3.5247 N   0  0  0  0  0  0  0  0  0  0  0  0
   15.2714   -3.1652   -3.8196 O   0  0  0  0  0  0  0  0  0  0  0  0
   15.5938   -1.9418   -4.1808 O   0  0  0  0  0  0  0  0  0  0  0  0
   14.9710   -1.5103   -5.3428 C   0  0  1  0  0  0  0  0  0  0  0  0
   14.9255   -2.3354   -6.4564 O   0  0  0  0  0  0  0  0  0  0  0  0
   15.8275   -2.0332   -7.3939 N   0  0  0  0  0  0  0  0  0  0  0  0
   13.9521   -0.3924   -5.2170 C   0  0  0  0  0  0  0  0  0  0  0  0
   15.2231   -0.1476   -5.7376 O   0  0  0  0  0  0  0  0  0  0  0  0
  1  2  1  0
  2  3  1  0
  3  4  2  3
  4  5  1  0
  5  6  2  0
  6  7  1  0
  7  8  1  0
  7  9  2  0
  6 10  1  0
 10 11  1  0
 12 11  1  1
 12 13  1  0
 13 14  1  0
 12 15  1  0
 15 16  1  0
  9  5  1  0
 16 12  1  0
M  END
>  <docking_score>  (3) 
-3.4710000000000001

$$$$
