
     RDKit          3D

 65 67  0  0  0  0  0  0  0  0999 V2000
    3.5157   14.2347   17.3302 C   0  0  0  0  0  0  0  0  0  0  0  0
    4.7663   14.6840   16.9144 O   0  0  0  0  0  0  0  0  0  0  0  0
    4.7334   15.2001   15.6395 C   0  0  0  0  0  3  0  0  0  0  0  0
    5.9921   15.4737   15.1146 O   0  0  0  0  0  0  0  0  0  0  0  0
    6.9725   14.6473   15.7098 C   0  0  2  0  0  0  0  0  0  0  0  0
    8.2842   15.3965   15.6171 C   0  0  0  0  0  0  0  0  0  0  0  0
    7.0239   13.3874   14.8679 C   0  0  0  0  0  3  0  0  0  0  0  0
    7.7592   13.6991   13.6094 C   0  0  1  0  0  0  0  0  0  0  0  0
    9.0699   13.0039   13.4606 C   0  0  0  0  0  3  0  0  0  0  0  0
    9.4323   12.9917   11.9873 C   0  0  0  0  0  3  0  0  0  0  0  0
   10.9173   13.1058   11.8657 C   0  0  1  0  0  0  0  0  0  0  0  0
   11.5115   11.9277   11.1541 C   0  0  0  0  0  0  0  0  0  0  0  0
   10.8042   11.1611   10.5393 O   0  0  0  0  0  0  0  0  0  0  0  0
   11.2091   14.3608   11.0452 C   0  0  0  0  0  0  0  0  0  0  0  0
   12.0068   15.1962   11.8403 O   0  0  0  0  0  0  0  0  0  0  0  0
   13.2373   15.1729   11.3907 O   0  0  0  0  0  0  0  0  0  0  0  0
   13.4668   14.0663   10.5927 C   0  0  0  0  0  3  0  0  0  0  0  0
   14.1730   13.0650   11.2558 O   0  0  0  0  0  0  0  0  0  0  0  0
   13.4980   12.5454   12.3323 C   0  0  0  0  0  0  0  0  0  0  0  0
   12.8939   13.4905   13.1331 O   0  0  0  0  0  0  0  0  0  0  0  0
   11.5378   13.1802   13.2213 C   0  0  1  0  0  0  0  0  0  0  0  0
   10.8053   14.1281   14.1469 C   0  0  0  0  0  3  0  0  0  0  0  0
    9.9405   14.9586   13.4782 O   0  0  0  0  0  0  0  0  0  0  0  0
   10.1351   15.0040   12.1819 O   0  0  0  0  0  0  0  0  0  0  0  0
   11.1802   15.8746   11.8503 C   0  0  0  0  0  2  0  0  0  0  0  0
    6.9253   13.7093   12.3779 C   0  0  0  0  0  3  0  0  0  0  0  0
    6.4617   12.4331   12.0781 O   0  0  0  0  0  0  0  0  0  0  0  0
    5.5049   12.5098   11.0917 C   0  0  0  0  0  0  0  0  0  0  0  0
    6.0217   12.9368    9.7558 C   0  0  0  0  0  3  0  0  0  0  0  0
    5.1747   13.9197    9.0261 C   0  0  1  0  0  0  0  0  0  0  0  0
    4.2986   14.6991    9.7431 O   0  0  0  0  0  0  0  0  0  0  0  0
    4.6106   15.7618    8.8841 C   0  0  2  0  0  0  0  0  0  0  0  0
    3.8441   15.6537    7.7241 O   0  0  0  0  0  0  0  0  0  0  0  0
    5.9934   15.2002    8.8008 C   0  0  2  0  0  0  0  0  0  0  0  0
    6.5773   15.1508    7.5569 O   0  0  0  0  0  0  0  0  0  0  0  0
    5.5518   14.9670    6.6202 C   0  0  0  0  0  3  0  0  0  0  0  0
    5.8584   13.8237    5.8948 O   0  0  0  0  0  0  0  0  0  0  0  0
    6.1932   14.1955    4.5989 C   0  0  1  0  0  0  0  0  0  0  0  0
    5.2414   13.7455    3.6786 O   0  0  0  0  0  0  0  0  0  0  0  0
    4.0522   14.4338    3.9023 C   0  0  0  0  0  3  0  0  0  0  0  0
    2.8855   13.4819    3.9149 C   0  0  0  0  0  3  0  0  0  0  0  0
    3.3218   12.2019    3.6630 O   0  0  0  0  0  0  0  0  0  0  0  0
    2.2864   11.2996    3.5587 C   0  0  0  0  0  3  0  0  0  0  0  0
    2.2741   10.4440    4.6463 O   0  0  0  0  0  0  0  0  0  0  0  0
    3.4134   10.6843    5.4299 C   0  0  2  0  0  0  0  0  0  0  0  0
    4.5189   11.2795    4.5879 C   0  0  0  0  0  0  0  0  0  0  0  0
    5.7041   11.2108    5.3005 O   0  0  0  0  0  0  0  0  0  0  0  0
    3.8332    9.3567    6.0300 C   0  0  0  0  0  3  0  0  0  0  0  0
    3.2497    8.1883    5.2976 C   0  0  0  0  0  2  0  0  0  0  0  0
    6.3404   15.6998    4.5403 C   0  0  2  0  0  0  0  0  0  0  0  0
    6.3947   16.0744    3.1931 O   0  0  0  0  0  0  0  0  0  0  0  0
    7.6882   16.0524    5.1727 C   0  0  0  0  0  3  0  0  0  0  0  0
    8.6600   15.1398    4.8164 O   0  0  0  0  0  0  0  0  0  0  0  0
    8.5863   14.7993    3.5516 O   0  0  0  0  0  0  0  0  0  0  0  0
    9.2915   13.6293    3.3207 C   0  0  1  0  0  0  0  0  0  0  0  0
   10.3631   13.8972    2.2758 C   0  0  0  0  0  3  0  0  0  0  0  0
   11.5701   14.2534    3.0983 C   0  0  0  0  0  3  0  0  0  0  0  0
   11.1418   14.2776    4.4310 O   0  0  0  0  0  0  0  0  0  0  0  0
   10.1524   13.3190    4.5496 C   0  0  2  0  0  0  0  0  0  0  0  0
   10.7117   11.9424    4.3490 C   0  0  0  0  0  0  0  0  0  0  0  0
   12.1955   11.9896    4.0512 C   0  0  0  0  0  3  0  0  0  0  0  0
   12.9954   11.9203    5.3179 C   0  0  0  0  0  3  0  0  0  0  0  0
   14.2157   12.5358    5.1401 O   0  0  0  0  0  0  0  0  0  0  0  0
   15.2867   11.6464    5.2122 C   0  0  0  0  0  3  0  0  0  0  0  0
   16.5628   12.4255    4.9327 C   0  0  0  0  0  2  0  0  0  0  0  0
  1  2  1  0
  2  3  1  0
  3  4  1  0
  4  5  1  0
  5  6  1  6
  5  7  1  0
  8  7  1  1
  8  9  1  0
  9 10  1  0
 11 10  1  1
 11 12  1  0
 12 13  2  0
 11 14  1  0
 14 15  1  0
 15 16  1  0
 16 17  1  0
 17 18  1  0
 18 19  1  0
 19 20  1  0
 20 21  1  0
 21 22  1  1
 22 23  1  0
 23 24  1  0
 24 25  1  0
  8 26  1  0
 26 27  1  0
 27 28  1  0
 28 29  1  0
 30 29  1  1
 30 31  1  0
 31 32  1  0
 32 33  1  6
 32 34  1  0
 34 35  1  6
 35 36  1  0
 36 37  1  0
 38 37  1  1
 38 39  1  0
 39 40  1  0
 40 41  1  0
 41 42  1  0
 42 43  1  0
 43 44  1  0
 44 45  1  0
 45 46  1  6
 46 47  1  0
 45 48  1  0
 48 49  1  0
 38 50  1  0
 50 51  1  6
 50 52  1  0
 52 53  1  0
 53 54  1  0
 55 54  1  1
 55 56  1  0
 56 57  1  0
 57 58  1  0
 58 59  1  0
 59 60  1  6
 60 61  1  0
 61 62  1  0
 62 63  1  0
 63 64  1  0
 64 65  1  0
 21 11  1  0
 34 30  1  0
 59 55  1  0
M  RAD  8   3   2   7   2   9   2  10   2  17   2  22   2  25   3  26   2
M  RAD  8  29   2  36   2  40   2  41   2  43   2  48   2  49   3  52   2
M  RAD  6  56   2  57   2  61   2  62   2  64   2  65   3
M  END
>  <docking_score>  (1) 
24.344000000000001

$$$$

     RDKit          3D

 65 67  0  0  0  0  0  0  0  0999 V2000
    2.5878    8.1668   10.2713 C   0  0  0  0  0  0  0  0  0  0  0  0
    3.2972    9.2054    9.6738 O   0  0  0  0  0  0  0  0  0  0  0  0
    3.2999    9.1081    8.3015 C   0  0  0  0  0  3  0  0  0  0  0  0
    3.8029    7.9009    7.8277 O   0  0  0  0  0  0  0  0  0  0  0  0
    3.8856    7.9131    6.4165 C   0  0  2  0  0  0  0  0  0  0  0  0
    4.7245    6.7168    6.0220 C   0  0  0  0  0  0  0  0  0  0  0  0
    4.5979    9.2006    6.0510 C   0  0  0  0  0  3  0  0  0  0  0  0
    3.6275   10.0842    5.3443 C   0  0  1  0  0  0  0  0  0  0  0  0
    4.1905   10.8315    4.1834 C   0  0  0  0  0  3  0  0  0  0  0  0
    5.6875   10.5870    4.1469 C   0  0  0  0  0  3  0  0  0  0  0  0
    6.3832   11.8702    4.4673 C   0  0  1  0  0  0  0  0  0  0  0  0
    7.8437   11.6622    4.7341 C   0  0  0  0  0  0  0  0  0  0  0  0
    8.4843   10.8804    4.0675 O   0  0  0  0  0  0  0  0  0  0  0  0
    6.2416   12.7786    3.2474 C   0  0  0  0  0  0  0  0  0  0  0  0
    5.5927   13.9454    3.6762 O   0  0  0  0  0  0  0  0  0  0  0  0
    6.4605   14.9255    3.7325 O   0  0  0  0  0  0  0  0  0  0  0  0
    7.7600   14.4529    3.7766 C   0  0  0  0  0  3  0  0  0  0  0  0
    8.3049   14.5029    5.0578 O   0  0  0  0  0  0  0  0  0  0  0  0
    7.6465   13.7051    5.9602 C   0  0  0  0  0  0  0  0  0  0  0  0
    6.2723   13.7780    5.8847 O   0  0  0  0  0  0  0  0  0  0  0  0
    5.7808   12.4890    5.6849 C   0  0  1  0  0  0  0  0  0  0  0  0
    4.2673   12.4634    5.6642 C   0  0  0  0  0  3  0  0  0  0  0  0
    3.7120   13.0945    6.7496 O   0  0  0  0  0  0  0  0  0  0  0  0
    2.4605   13.4493    6.5812 O   0  0  0  0  0  0  0  0  0  0  0  0
    2.3597   14.7558    6.0881 C   0  0  0  0  0  2  0  0  0  0  0  0
    2.2901    9.4819    5.0978 C   0  0  0  0  0  3  0  0  0  0  0  0
    2.2580    8.8202    3.8752 O   0  0  0  0  0  0  0  0  0  0  0  0
    2.4046    7.4669    4.0791 C   0  0  0  0  0  0  0  0  0  0  0  0
    2.8406    6.6997    2.8727 C   0  0  0  0  0  3  0  0  0  0  0  0
    3.9568    7.3065    2.0971 C   0  0  1  0  0  0  0  0  0  0  0  0
    4.8084    8.1773    2.7340 O   0  0  0  0  0  0  0  0  0  0  0  0
    5.8607    7.6177    1.9965 C   0  0  2  0  0  0  0  0  0  0  0  0
    5.9057    8.2143    0.7368 O   0  0  0  0  0  0  0  0  0  0  0  0
    5.1305    6.3154    2.0701 C   0  0  2  0  0  0  0  0  0  0  0  0
    5.0640    5.5667    0.9187 O   0  0  0  0  0  0  0  0  0  0  0  0
    6.3786    5.2663    0.5384 C   0  0  0  0  0  3  0  0  0  0  0  0
    6.3215    4.1577   -0.2954 O   0  0  0  0  0  0  0  0  0  0  0  0
    7.5128    4.0729   -1.0049 C   0  0  1  0  0  0  0  0  0  0  0  0
    7.2814    4.0203   -2.3830 O   0  0  0  0  0  0  0  0  0  0  0  0
    5.9092    4.1011   -2.6029 C   0  0  0  0  0  3  0  0  0  0  0  0
    5.3805    2.7921   -3.1267 C   0  0  0  0  0  3  0  0  0  0  0  0
    5.8810    2.5543   -4.3857 O   0  0  0  0  0  0  0  0  0  0  0  0
    7.2558    2.4721   -4.4031 C   0  0  0  0  0  3  0  0  0  0  0  0
    7.6688    1.3656   -5.1243 O   0  0  0  0  0  0  0  0  0  0  0  0
    6.6401    0.9786   -5.9971 C   0  0  2  0  0  0  0  0  0  0  0  0
    5.7385    2.1523   -6.3057 C   0  0  0  0  0  0  0  0  0  0  0  0
    5.8786    2.4782   -7.6441 O   0  0  0  0  0  0  0  0  0  0  0  0
    5.8737   -0.1400   -5.3188 C   0  0  0  0  0  3  0  0  0  0  0  0
    6.4872   -1.4838   -5.5637 C   0  0  0  0  0  2  0  0  0  0  0  0
    8.3870    5.2531   -0.6429 C   0  0  2  0  0  0  0  0  0  0  0  0
    8.9626    5.7395   -1.8220 O   0  0  0  0  0  0  0  0  0  0  0  0
    9.5195    4.7288    0.2421 C   0  0  0  0  0  3  0  0  0  0  0  0
   10.7504    4.9453   -0.3429 O   0  0  0  0  0  0  0  0  0  0  0  0
   11.0475    6.2204   -0.4248 O   0  0  0  0  0  0  0  0  0  0  0  0
   12.1992    6.4047   -1.1726 C   0  0  1  0  0  0  0  0  0  0  0  0
   12.7125    7.8181   -0.9479 C   0  0  0  0  0  3  0  0  0  0  0  0
   13.6866    7.6587    0.1860 C   0  0  0  0  0  3  0  0  0  0  0  0
   13.6061    6.3193    0.5853 O   0  0  0  0  0  0  0  0  0  0  0  0
   13.3310    5.5802   -0.5505 C   0  0  2  0  0  0  0  0  0  0  0  0
   14.4796    5.6276   -1.5132 C   0  0  0  0  0  0  0  0  0  0  0  0
   14.3569    6.8041   -2.4582 C   0  0  0  0  0  3  0  0  0  0  0  0
   15.5867    6.9364   -3.3063 C   0  0  0  0  0  3  0  0  0  0  0  0
   15.9426    5.7068   -3.8173 O   0  0  0  0  0  0  0  0  0  0  0  0
   17.2851    5.6418   -4.1871 C   0  0  0  0  0  3  0  0  0  0  0  0
   17.3622    5.7846   -5.6995 C   0  0  0  0  0  2  0  0  0  0  0  0
  1  2  1  0
  2  3  1  0
  3  4  1  0
  4  5  1  0
  5  6  1  1
  5  7  1  0
  8  7  1  6
  8  9  1  0
  9 10  1  0
 11 10  1  6
 11 12  1  0
 12 13  2  0
 11 14  1  0
 14 15  1  0
 15 16  1  0
 16 17  1  0
 17 18  1  0
 18 19  1  0
 19 20  1  0
 20 21  1  0
 21 22  1  6
 22 23  1  0
 23 24  1  0
 24 25  1  0
  8 26  1  0
 26 27  1  0
 27 28  1  0
 28 29  1  0
 30 29  1  1
 30 31  1  0
 31 32  1  0
 32 33  1  6
 32 34  1  0
 34 35  1  6
 35 36  1  0
 36 37  1  0
 38 37  1  1
 38 39  1  0
 39 40  1  0
 40 41  1  0
 41 42  1  0
 42 43  1  0
 43 44  1  0
 44 45  1  0
 45 46  1  1
 46 47  1  0
 45 48  1  0
 48 49  1  0
 38 50  1  0
 50 51  1  6
 50 52  1  0
 52 53  1  0
 53 54  1  0
 55 54  1  1
 55 56  1  0
 56 57  1  0
 57 58  1  0
 58 59  1  0
 59 60  1  6
 60 61  1  0
 61 62  1  0
 62 63  1  0
 63 64  1  0
 64 65  1  0
 21 11  1  0
 34 30  1  0
 59 55  1  0
M  RAD  8   3   2   7   2   9   2  10   2  17   2  22   2  25   3  26   2
M  RAD  8  29   2  36   2  40   2  41   2  43   2  48   2  49   3  52   2
M  RAD  6  56   2  57   2  61   2  62   2  64   2  65   3
M  END
>  <docking_score>  (2) 
26.177

$$$$
