
     RDKit          3D

 10 11  0  0  0  0  0  0  0  0999 V2000
    4.5281   -3.3039   -6.9503 N   0  0  0  0  0  0  0  0  0  0  0  0
    5.4302   -2.2485   -6.6226 C   0  0  0  0  0  0  0  0  0  0  0  0
    5.6719   -1.3351   -7.4768 N   0  0  0  0  0  0  0  0  0  0  0  0
    6.5333   -0.2234   -7.3196 C   0  0  1  0  0  0  0  0  0  0  0  0
    5.9129    1.0613   -7.5407 N   0  0  0  0  0  0  0  0  0  0  0  0
    6.0545    1.7913   -6.3361 C   0  0  0  0  0  0  0  0  0  0  0  0
    6.7817    1.1696   -5.4715 N   0  0  0  0  0  0  0  0  0  0  0  0
    7.2314   -0.1052   -6.0204 C   0  0  1  0  0  0  0  0  0  0  0  0
    6.9339   -1.1735   -5.0527 C   0  0  0  0  0  0  0  0  0  0  0  0
    6.1008   -2.1673   -5.3276 C   0  0  0  0  0  0  0  0  0  0  0  0
  1  2  1  0
  2  3  2  0
  3  4  1  0
  4  5  1  1
  5  6  1  0
  6  7  2  0
  7  8  1  0
  8  9  1  1
  9 10  2  0
 10  2  1  0
  8  4  1  0
M  END
>  <docking_score>  (1) 
-5.0300000000000002

$$$$

     RDKit          3D

 10 11  0  0  0  0  0  0  0  0999 V2000
    6.7989    2.6134   -4.6598 N   0  0  0  0  0  0  0  0  0  0  0  0
    6.6747    1.4870   -5.5263 C   0  0  0  0  0  0  0  0  0  0  0  0
    7.0916    0.3458   -5.1438 N   0  0  0  0  0  0  0  0  0  0  0  0
    7.0474   -0.8682   -5.8696 C   0  0  1  0  0  0  0  0  0  0  0  0
    6.3712   -1.9527   -5.1980 N   0  0  0  0  0  0  0  0  0  0  0  0
    5.2963   -2.3384   -6.0345 C   0  0  0  0  0  0  0  0  0  0  0  0
    5.3129   -1.7209   -7.1664 N   0  0  0  0  0  0  0  0  0  0  0  0
    6.4509   -0.8096   -7.2223 C   0  0  1  0  0  0  0  0  0  0  0  0
    5.9777    0.5205   -7.6385 C   0  0  0  0  0  0  0  0  0  0  0  0
    6.0795    1.5859   -6.8565 C   0  0  0  0  0  0  0  0  0  0  0  0
  1  2  1  0
  2  3  2  0
  3  4  1  0
  4  5  1  1
  5  6  1  0
  6  7  2  0
  7  8  1  0
  8  9  1  1
  9 10  2  0
 10  2  1  0
  8  4  1  0
M  END
>  <docking_score>  (2) 
-5.0129999999999999

$$$$

     RDKit          3D

 10 11  0  0  0  0  0  0  0  0999 V2000
   15.2149   -1.5308   -4.6285 N   0  0  0  0  0  0  0  0  0  0  0  0
   15.6958   -2.6163   -3.8377 C   0  0  0  0  0  0  0  0  0  0  0  0
   15.5124   -3.8142   -4.2297 N   0  0  0  0  0  0  0  0  0  0  0  0
   15.9199   -5.0004   -3.5744 C   0  0  1  0  0  0  0  0  0  0  0  0
   16.7458   -5.8793   -4.3680 N   0  0  0  0  0  0  0  0  0  0  0  0
   17.9704   -6.0208   -3.6720 C   0  0  0  0  0  0  0  0  0  0  0  0
   17.9429   -5.4513   -2.5154 N   0  0  0  0  0  0  0  0  0  0  0  0
   16.6395   -4.8349   -2.2923 C   0  0  1  0  0  0  0  0  0  0  0  0
   16.8375   -3.4409   -1.8634 C   0  0  0  0  0  0  0  0  0  0  0  0
   16.4022   -2.4113   -2.5758 C   0  0  0  0  0  0  0  0  0  0  0  0
  1  2  1  0
  2  3  2  0
  3  4  1  0
  4  5  1  6
  5  6  1  0
  6  7  2  0
  7  8  1  0
  8  9  1  6
  9 10  2  0
 10  2  1  0
  8  4  1  0
M  END
>  <docking_score>  (3) 
-3.6909999999999998

$$$$
