
     RDKit          3D

 62 62  0  0  0  0  0  0  0  0999 V2000
   18.6793   10.6308   14.2456 C   0  0  0  0  0  0  0  0  0  0  0  0
   19.4796    9.5566   13.5498 C   0  0  0  0  0  0  0  0  0  0  0  0
   20.2632   10.0932   12.3823 C   0  0  0  0  0  0  0  0  0  0  0  0
   18.6250    8.3661   13.1841 C   0  0  0  0  0  0  0  0  0  0  0  0
   17.2574    8.4272   13.8271 C   0  0  0  0  0  0  0  0  0  0  0  0
   16.2676    8.8146   12.7443 C   0  0  0  0  0  0  0  0  0  0  0  0
   14.9548    9.2538   13.3556 C   0  0  1  0  0  0  0  0  0  0  0  0
   14.7858    8.5966   14.7098 C   0  0  0  0  0  0  0  0  0  0  0  0
   14.9584   10.7497   13.5930 C   0  0  0  0  0  3  0  0  0  0  0  0
   13.6351   11.0961   14.2609 C   0  0  0  0  0  0  0  0  0  0  0  0
   13.6847   10.6947   15.7020 C   0  0  0  0  0  0  0  0  0  0  0  0
   13.0135   11.6881   16.6172 C   0  0  0  0  0  3  0  0  0  0  0  0
   13.9256   12.2446   17.6694 C   0  0  0  0  0  0  0  0  0  0  0  0
   12.3583   12.7566   15.7975 C   0  0  0  0  0  3  0  0  0  0  0  0
   10.8812   12.4835   15.6929 C   0  0  0  0  0  0  0  0  0  0  0  0
   10.1435   13.7818   15.6308 C   0  0  1  0  0  0  0  0  0  0  0  0
   10.3851   14.6120   16.7760 N   0  0  0  0  0  3  0  0  0  0  0  0
    9.7442   15.6720   16.8667 N   0  0  0  0  0  2  0  0  0  0  0  0
   10.3691   14.5385   14.3389 C   0  0  1  0  0  0  0  0  0  0  0  0
   11.8048   15.0136   14.3530 C   0  0  0  0  0  0  0  0  0  0  0  0
   10.1440   13.6100   13.1392 C   0  0  2  0  0  0  0  0  0  0  0  0
   11.1920   13.8794   12.1118 C   0  0  0  0  0  1  0  0  0  0  0  0
    8.7767   13.8242   12.5518 C   0  0  0  0  0  0  0  0  0  0  0  0
   10.1843   12.3133   13.6414 O   0  0  0  0  0  0  0  0  0  0  0  0
    9.5885   11.3994   12.7768 C   0  0  0  0  0  0  0  0  0  0  0  0
   10.5406   10.9598   11.6848 C   0  0  0  0  0  0  0  0  0  0  0  0
    9.7872   10.9984   10.3734 C   0  0  2  0  0  0  0  0  0  0  0  0
    9.9474   12.3256    9.6814 O   0  0  0  0  0  0  0  0  0  0  0  0
    8.7103   11.8093   10.0242 C   0  0  2  0  0  0  0  0  0  0  0  0
    7.7940   12.5915   10.9338 C   0  0  1  0  0  0  0  0  0  0  0  0
    6.4573   12.4377   10.5768 O   0  0  0  0  0  0  0  0  0  0  0  0
    7.9587   11.9898   12.3315 C   0  0  0  0  0  0  0  0  0  0  0  0
    6.6298   11.3546   12.6759 C   0  0  2  0  0  0  0  0  0  0  0  0
    6.7579    9.9661   12.8107 O   0  0  0  0  0  0  0  0  0  0  0  0
    5.5840   11.6796   11.6186 C   0  0  0  0  0  0  0  0  0  0  0  0
    4.2570   11.8464   12.3364 C   0  0  0  0  0  0  0  0  0  0  0  0
    3.4325   12.9224   11.6620 C   0  0  0  0  0  0  0  0  0  0  0  0
    3.2765   12.6503   10.2019 C   0  0  0  0  0  0  0  0  0  0  0  0
    3.4074   11.2049    9.8433 C   0  0  1  0  0  0  0  0  0  0  0  0
    2.5822   10.8993    8.6346 C   0  0  0  0  0  0  0  0  0  0  0  0
    4.8460   10.8633    9.5843 C   0  0  0  0  0  0  0  0  0  0  0  0
    5.7919   11.8702   10.1969 C   0  0  0  0  0  3  0  0  0  0  0  0
    5.0622   13.1467   10.4508 C   0  0  0  0  0  0  0  0  0  0  0  0
    5.6756   14.3215    9.7564 C   0  0  2  0  0  0  0  0  0  0  0  0
    4.5662   15.4005    9.7321 C   0  0  0  0  0  2  0  0  0  0  0  0
    5.9808   14.0285    8.3353 C   0  0  0  0  0  3  0  0  0  0  0  0
    6.0792   15.2781    7.5143 C   0  0  0  0  0  0  0  0  0  0  0  0
    7.3885   15.2915    6.7587 C   0  0  0  0  0  0  0  0  0  0  0  0
    8.5244   15.1724    7.7648 C   0  0  0  0  0  0  0  0  0  0  0  0
    9.6494   16.0506    7.2559 C   0  0  0  0  0  2  0  0  0  0  0  0
    5.3074   12.9062    7.6857 C   0  0  0  0  0  0  0  0  0  0  0  0
    5.2095   12.9088    6.3180 O   0  0  0  0  0  0  0  0  0  0  0  0
    4.5462   11.7729    5.8286 C   0  0  0  0  0  3  0  0  0  0  0  0
    5.1471   11.2728    4.5546 C   0  0  0  0  0  3  0  0  0  0  0  0
    6.3952   10.4331    4.8280 C   0  0  0  0  0  0  0  0  0  0  0  0
    6.8545    9.7450    3.5621 C   0  0  0  0  0  2  0  0  0  0  0  0
    4.2000   10.5055    3.6871 C   0  0  0  0  0  3  0  0  0  0  0  0
    3.6986    9.2649    4.4112 C   0  0  1  0  0  0  0  0  0  0  0  0
    2.8389    8.4303    3.4864 C   0  0  0  0  0  2  0  0  0  0  0  0
    4.9300    8.4745    4.8252 C   0  0  0  0  0  0  0  0  0  0  0  0
    5.4389    7.6291    3.6764 C   0  0  0  0  0  3  0  0  0  0  0  0
    4.7262    6.3100    3.6915 C   0  0  0  0  0  0  0  0  0  0  0  0
  1  2  1  0
  2  3  1  0
  2  4  1  0
  4  5  1  0
  5  6  1  0
  6  7  1  0
  7  8  1  1
  7  9  1  0
  9 10  1  0
 10 11  1  0
 11 12  1  0
 12 13  1  0
 12 14  1  0
 14 15  1  0
 16 15  1  1
 16 17  1  0
 17 18  2  0
 16 19  1  0
 19 20  1  1
 19 21  1  0
 21 22  1  6
 21 23  1  0
 21 24  1  0
 24 25  1  0
 25 26  1  0
 27 26  1  1
 27 28  1  0
 29 28  1  6
 29 30  1  0
 30 31  1  6
 30 32  1  0
 32 33  1  0
 33 34  1  6
 33 35  1  0
 35 36  1  0
 36 37  1  0
 37 38  1  0
 38 39  1  0
 39 40  1  6
 39 41  1  0
 41 42  1  0
 42 43  1  0
 43 44  1  0
 44 45  1  6
 44 46  1  0
 46 47  1  0
 47 48  1  0
 48 49  1  0
 49 50  1  0
 46 51  1  0
 51 52  1  0
 52 53  1  0
 53 54  1  0
 54 55  1  0
 55 56  1  0
 54 57  1  0
 57 58  1  0
 58 59  1  6
 58 60  1  0
 60 61  1  0
 61 62  1  0
 29 27  1  0
M  RAD  8   9   2  12   2  14   2  17   2  22   2  42   2  45   3  46   2
M  CHG  2  17   1  18  -1
M  RAD  7  50   3  53   2  54   2  56   3  57   2  59   3  61   2
M  END
>  <docking_score>  (1) 
27.719999999999999

$$$$
