
     RDKit          3D

 31 33  0  0  0  0  0  0  0  0999 V2000
    6.3415   14.4588    3.9139 C   0  0  0  0  0  0  0  0  0  0  0  0
    7.7089   14.2668    3.2807 C   0  0  2  0  0  0  0  0  0  0  0  0
    7.7882   15.0504    1.9960 C   0  0  0  0  0  0  0  0  0  0  0  0
    7.7880   12.7808    2.9088 C   0  0  0  0  0  0  0  0  0  0  0  0
    7.0838   12.6501    1.5729 C   0  0  0  0  0  0  0  0  0  0  0  0
    5.7126   12.0689    1.6839 C   0  0  0  0  0  0  0  0  0  0  0  0
    5.7547   10.8572    2.5799 C   0  0  1  0  0  0  0  0  0  0  0  0
    6.2034   11.1912    3.9619 C   0  0  0  0  0  0  0  0  0  0  0  0
    4.4616   10.1146    2.5055 C   0  0  0  0  0  3  0  0  0  0  0  0
    4.6021    8.6311    2.7523 C   0  0  0  0  0  0  0  0  0  0  0  0
    3.5664    8.1155    3.7329 C   0  0  0  0  0  0  0  0  0  0  0  0
    3.4008    6.6191    3.5859 C   0  0  2  0  0  0  0  0  0  0  0  0
    2.7728    6.3154    2.2438 C   0  0  0  0  0  0  0  0  0  0  0  0
    2.4319    6.1368    4.6472 C   0  0  0  0  0  3  0  0  0  0  0  0
    2.2576    7.1382    5.7618 C   0  0  0  0  0  0  0  0  0  0  0  0
    3.4706    7.0409    6.6588 C   0  0  1  0  0  0  0  0  0  0  0  0
    4.2055    8.2772    6.5576 N   0  0  0  0  0  0  0  0  0  0  0  0
    2.9874    6.8915    8.0800 C   0  0  0  0  0  0  0  0  0  0  0  0
    2.6217    8.2378    8.6615 C   0  0  0  0  0  0  0  0  0  0  0  0
    3.8524    9.0389    9.0456 C   0  0  2  0  0  0  0  0  0  0  0  0
    4.0029    8.9176   10.4348 O   0  0  0  0  0  0  0  0  0  0  0  0
    3.6024   10.4940    8.6929 C   0  0  0  0  0  3  0  0  0  0  0  0
    4.2384   11.3611    9.7641 C   0  0  0  0  0  0  0  0  0  0  0  0
    4.5778   12.7236    9.2444 C   0  0  0  0  0  3  0  0  0  0  0  0
    4.1650   12.9283    7.9275 O   0  0  0  0  0  0  0  0  0  0  0  0
    5.2750   12.8853    7.1214 C   0  0  1  0  0  0  0  0  0  0  0  0
    5.4297   11.5112    6.5677 C   0  0  0  0  0  0  0  0  0  0  0  0
    6.4245   11.9634    4.9603 S   0  0  2  0  0  0  0  0  0  0  0  0
    6.3343   13.7051    5.2045 C   0  0  2  0  0  0  0  0  0  0  0  0
    5.0143   13.8163    5.9376 C   0  0  2  0  0  0  0  0  0  0  0  0
    4.7832   15.2013    6.4415 C   0  0  0  0  0  2  0  0  0  0  0  0
  1  2  1  0
  2  3  1  6
  2  4  1  0
  4  5  1  0
  5  6  1  0
  7  6  1  6
  7  8  1  0
  7  9  1  0
  9 10  1  0
 10 11  1  0
 11 12  1  0
 12 13  1  6
 12 14  1  0
 14 15  1  0
 15 16  1  0
 16 17  1  1
 16 18  1  0
 18 19  1  0
 19 20  1  0
 20 21  1  1
 20 22  1  0
 22 23  1  0
 23 24  1  0
 24 25  1  0
 26 25  1  1
 26 27  1  0
 28 27  1  1
 28 29  1  0
 29 30  1  0
 30 31  1  1
 29  1  1  6
 28  8  1  0
 30 26  1  0
M  RAD  5   9   2  14   2  22   2  24   2  31   3
M  END
>  <docking_score>  (1) 
-6.3529999999999998

$$$$

     RDKit          3D

 31 33  0  0  0  0  0  0  0  0999 V2000
    3.4951    7.0230    7.9254 C   0  0  0  0  0  0  0  0  0  0  0  0
    2.3261    6.3755    7.2031 C   0  0  2  0  0  0  0  0  0  0  0  0
    2.6233    4.9182    6.9606 C   0  0  0  0  0  0  0  0  0  0  0  0
    2.2585    7.0570    5.8307 C   0  0  0  0  0  0  0  0  0  0  0  0
    3.2718    6.3393    4.9614 C   0  0  0  0  0  0  0  0  0  0  0  0
    4.5329    7.1144    4.7641 C   0  0  0  0  0  0  0  0  0  0  0  0
    4.1931    8.5419    4.4181 C   0  0  1  0  0  0  0  0  0  0  0  0
    3.4263    9.2193    5.5026 C   0  0  0  0  0  0  0  0  0  0  0  0
    5.4169    9.2701    3.9699 C   0  0  0  0  0  3  0  0  0  0  0  0
    5.1321   10.3830    2.9891 C   0  0  0  0  0  0  0  0  0  0  0  0
    5.8511   11.6663    3.3582 C   0  0  0  0  0  0  0  0  0  0  0  0
    5.9616   12.5736    2.1528 C   0  0  2  0  0  0  0  0  0  0  0  0
    6.8929   11.9466    1.1392 C   0  0  0  0  0  0  0  0  0  0  0  0
    6.5974   13.8781    2.5906 C   0  0  0  0  0  3  0  0  0  0  0  0
    6.5390   14.0710    4.0856 C   0  0  0  0  0  0  0  0  0  0  0  0
    5.1336   14.5029    4.4371 C   0  0  1  0  0  0  0  0  0  0  0  0
    4.5220   13.4545    5.2154 N   0  0  0  0  0  0  0  0  0  0  0  0
    5.2282   15.7385    5.2973 C   0  0  0  0  0  0  0  0  0  0  0  0
    5.5107   15.3654    6.7345 C   0  0  0  0  0  0  0  0  0  0  0  0
    4.2713   14.8371    7.4337 C   0  0  2  0  0  0  0  0  0  0  0  0
    3.7642   15.8852    8.2156 O   0  0  0  0  0  0  0  0  0  0  0  0
    4.6872   13.6915    8.3386 C   0  0  0  0  0  3  0  0  0  0  0  0
    3.8501   13.7537    9.6032 C   0  0  0  0  0  0  0  0  0  0  0  0
    3.7344   12.4120   10.2573 C   0  0  0  0  0  3  0  0  0  0  0  0
    4.4812   11.4222    9.6176 O   0  0  0  0  0  0  0  0  0  0  0  0
    3.6134   10.6119    8.9289 C   0  0  1  0  0  0  0  0  0  0  0  0
    3.5258   11.0718    7.5149 C   0  0  0  0  0  0  0  0  0  0  0  0
    3.0027    9.3864    6.7003 S   0  0  2  0  0  0  0  0  0  0  0  0
    3.1285    8.4484    8.1855 C   0  0  2  0  0  0  0  0  0  0  0  0
    4.2216    9.2099    8.9050 C   0  0  2  0  0  0  0  0  0  0  0  0
    4.3963    8.7245   10.3048 C   0  0  0  0  0  2  0  0  0  0  0  0
  1  2  1  0
  2  3  1  6
  2  4  1  0
  4  5  1  0
  5  6  1  0
  7  6  1  1
  7  8  1  0
  7  9  1  0
  9 10  1  0
 10 11  1  0
 11 12  1  0
 12 13  1  6
 12 14  1  0
 14 15  1  0
 15 16  1  0
 16 17  1  1
 16 18  1  0
 18 19  1  0
 19 20  1  0
 20 21  1  1
 20 22  1  0
 22 23  1  0
 23 24  1  0
 24 25  1  0
 26 25  1  1
 26 27  1  0
 28 27  1  1
 28 29  1  0
 29 30  1  0
 30 31  1  1
 29  1  1  6
 28  8  1  0
 30 26  1  0
M  RAD  5   9   2  14   2  22   2  24   2  31   3
M  END
>  <docking_score>  (2) 
-5.7610000000000001

$$$$

     RDKit          3D

 31 33  0  0  0  0  0  0  0  0999 V2000
    3.3646    8.0205    4.8951 C   0  0  0  0  0  0  0  0  0  0  0  0
    2.3579    8.1563    3.7655 C   0  0  2  0  0  0  0  0  0  0  0  0
    2.5162    7.0075    2.8033 C   0  0  0  0  0  0  0  0  0  0  0  0
    2.7505    9.4335    3.0124 C   0  0  0  0  0  0  0  0  0  0  0  0
    3.8571    9.0285    2.0589 C   0  0  0  0  0  0  0  0  0  0  0  0
    5.2150    9.4431    2.5220 C   0  0  0  0  0  0  0  0  0  0  0  0
    5.1699   10.8787    2.9802 C   0  0  1  0  0  0  0  0  0  0  0  0
    4.2357   11.0777    4.1250 C   0  0  0  0  0  0  0  0  0  0  0  0
    6.5533   11.3924    3.2065 C   0  0  0  0  0  3  0  0  0  0  0  0
    6.6900   12.8794    2.9797 C   0  0  0  0  0  0  0  0  0  0  0  0
    7.4449   13.5610    4.1047 C   0  0  0  0  0  0  0  0  0  0  0  0
    7.9922   14.8927    3.6408 C   0  0  2  0  0  0  0  0  0  0  0  0
    9.0710   14.6568    2.6072 C   0  0  0  0  0  0  0  0  0  0  0  0
    8.6521   15.5779    4.8209 C   0  0  0  0  0  3  0  0  0  0  0  0
    8.2206   14.9884    6.1407 C   0  0  0  0  0  0  0  0  0  0  0  0
    6.8413   15.5232    6.4521 C   0  0  1  0  0  0  0  0  0  0  0  0
    5.9118   14.4216    6.4117 N   0  0  0  0  0  0  0  0  0  0  0  0
    6.8622   16.0746    7.8560 C   0  0  0  0  0  0  0  0  0  0  0  0
    6.6977   14.9627    8.8665 C   0  0  0  0  0  0  0  0  0  0  0  0
    5.2582   14.4891    8.9540 C   0  0  2  0  0  0  0  0  0  0  0  0
    4.7013   15.0805   10.0974 O   0  0  0  0  0  0  0  0  0  0  0  0
    5.2628   12.9804    9.1208 C   0  0  0  0  0  3  0  0  0  0  0  0
    4.1327   12.6003   10.0601 C   0  0  0  0  0  0  0  0  0  0  0  0
    3.6716   11.1944    9.8315 C   0  0  0  0  0  3  0  0  0  0  0  0
    4.4266   10.5171    8.8734 O   0  0  0  0  0  0  0  0  0  0  0  0
    3.6772   10.4251    7.7273 C   0  0  1  0  0  0  0  0  0  0  0  0
    4.0329   11.5467    6.8138 C   0  0  0  0  0  0  0  0  0  0  0  0
    3.5319   10.7121    5.1314 S   0  0  2  0  0  0  0  0  0  0  0  0
    3.1311    9.1520    5.8432 C   0  0  2  0  0  0  0  0  0  0  0  0
    4.0809    9.1306    7.0221 C   0  0  2  0  0  0  0  0  0  0  0  0
    3.8088    7.9731    7.9231 C   0  0  0  0  0  2  0  0  0  0  0  0
  1  2  1  0
  2  3  1  6
  2  4  1  0
  4  5  1  0
  5  6  1  0
  7  6  1  1
  7  8  1  0
  7  9  1  0
  9 10  1  0
 10 11  1  0
 11 12  1  0
 12 13  1  6
 12 14  1  0
 14 15  1  0
 15 16  1  0
 16 17  1  1
 16 18  1  0
 18 19  1  0
 19 20  1  0
 20 21  1  1
 20 22  1  0
 22 23  1  0
 23 24  1  0
 24 25  1  0
 26 25  1  1
 26 27  1  0
 28 27  1  1
 28 29  1  0
 29 30  1  0
 30 31  1  1
 29  1  1  6
 28  8  1  0
 30 26  1  0
M  RAD  5   9   2  14   2  22   2  24   2  31   3
M  END
>  <docking_score>  (3) 
-4.8899999999999997

$$$$
