
     RDKit          3D

 14 14  0  0  0  0  0  0  0  0999 V2000
   14.0119   -1.5781   -5.0691 O   0  0  0  0  0  0  0  0  0  0  0  0
   15.1009   -1.3620   -5.7304 O   0  0  0  0  0  0  0  0  0  0  0  0
   15.6936   -2.2765   -6.4499 C   0  0  0  0  0  3  0  0  0  0  0  0
   14.8625   -3.4167   -6.8940 O   0  0  0  0  0  0  0  0  0  0  0  0
   15.8345   -4.5264   -6.5232 C   0  0  2  0  0  0  0  0  0  0  0  0
   15.2823   -5.6237   -7.5252 C   0  0  0  0  0  0  0  0  0  0  0  0
   14.7738   -4.7943   -8.7374 C   0  0  0  0  0  2  0  0  0  0  0  0
   15.0687   -4.9052   -5.1692 C   0  0  1  0  0  0  0  0  0  0  0  0
   14.3327   -6.0966   -5.3328 N   0  0  0  0  0  0  0  0  0  0  0  0
   14.6244   -7.1784   -4.4541 C   0  0  0  0  0  2  0  0  0  0  0  0
   15.9513   -5.1613   -4.0037 C   0  0  0  0  0  3  0  0  0  0  0  0
   16.8347   -4.0613   -3.5271 C   0  0  2  0  0  0  0  0  0  0  0  0
   16.7870   -3.9026   -2.0021 C   0  0  0  0  0  3  0  0  0  0  0  0
   16.0763   -2.9650   -2.8182 O   0  0  0  0  0  0  0  0  0  0  0  0
  1  2  1  0
  2  3  1  0
  3  4  1  0
  4  5  1  0
  5  6  1  6
  6  7  1  0
  5  8  1  0
  8  9  1  0
  9 10  1  0
  8 11  1  1
 12 11  1  1
 12 13  1  0
 12 14  1  0
 14 13  1  0
M  RAD  5   3   2   7   3  10   3  11   2  13   2
M  END
>  <docking_score>  (1) 
-3.052

$$$$

     RDKit          3D

 14 14  0  0  0  0  0  0  0  0999 V2000
   17.2145   -1.6536   -2.1025 O   0  0  0  0  0  0  0  0  0  0  0  0
   16.1715   -1.8040   -2.8505 O   0  0  0  0  0  0  0  0  0  0  0  0
   15.8792   -2.9254   -3.4524 C   0  0  0  0  0  3  0  0  0  0  0  0
   14.9442   -2.8435   -4.5956 O   0  0  0  0  0  0  0  0  0  0  0  0
   15.8651   -3.4423   -5.6478 C   0  0  2  0  0  0  0  0  0  0  0  0
   15.8116   -2.2362   -6.6751 C   0  0  0  0  0  0  0  0  0  0  0  0
   17.3081   -1.9232   -6.9553 C   0  0  0  0  0  2  0  0  0  0  0  0
   14.7463   -4.4239   -6.2377 C   0  0  1  0  0  0  0  0  0  0  0  0
   14.5143   -4.1487   -7.6008 N   0  0  0  0  0  0  0  0  0  0  0  0
   14.2482   -5.2519   -8.4608 C   0  0  0  0  0  2  0  0  0  0  0  0
   15.0959   -5.8657   -6.1957 C   0  0  0  0  0  3  0  0  0  0  0  0
   15.8535   -6.3785   -5.0207 C   0  0  2  0  0  0  0  0  0  0  0  0
   17.1102   -7.1530   -5.4376 C   0  0  0  0  0  3  0  0  0  0  0  0
   15.9588   -7.8845   -5.0021 O   0  0  0  0  0  0  0  0  0  0  0  0
  1  2  1  0
  2  3  1  0
  3  4  1  0
  4  5  1  0
  5  6  1  6
  6  7  1  0
  5  8  1  0
  8  9  1  0
  9 10  1  0
  8 11  1  6
 12 11  1  6
 12 13  1  0
 12 14  1  0
 14 13  1  0
M  RAD  5   3   2   7   3  10   3  11   2  13   2
M  END
>  <docking_score>  (2) 
-2.9940000000000002

$$$$

     RDKit          3D

 14 14  0  0  0  0  0  0  0  0999 V2000
   14.4885   -0.0430   -5.8901 O   0  0  0  0  0  0  0  0  0  0  0  0
   14.2128   -1.0457   -5.1230 O   0  0  0  0  0  0  0  0  0  0  0  0
   14.8304   -1.2740   -3.9953 C   0  0  0  0  0  3  0  0  0  0  0  0
   16.1957   -1.8360   -4.0857 O   0  0  0  0  0  0  0  0  0  0  0  0
   15.9412   -3.1039   -3.2850 C   0  0  2  0  0  0  0  0  0  0  0  0
   16.8073   -2.7192   -2.0141 C   0  0  0  0  0  0  0  0  0  0  0  0
   17.9729   -1.8764   -2.6031 C   0  0  0  0  0  2  0  0  0  0  0  0
   16.9758   -3.9860   -4.1305 C   0  0  1  0  0  0  0  0  0  0  0  0
   17.2891   -5.1766   -3.4436 N   0  0  0  0  0  0  0  0  0  0  0  0
   17.8526   -6.2449   -4.1977 C   0  0  0  0  0  2  0  0  0  0  0  0
   16.4781   -4.4321   -5.4558 C   0  0  0  0  0  3  0  0  0  0  0  0
   15.0070   -4.4826   -5.6813 C   0  0  2  0  0  0  0  0  0  0  0  0
   14.6301   -5.4416   -6.8177 C   0  0  0  0  0  3  0  0  0  0  0  0
   14.6099   -4.0316   -7.0665 O   0  0  0  0  0  0  0  0  0  0  0  0
  1  2  1  0
  2  3  1  0
  3  4  1  0
  4  5  1  0
  5  6  1  1
  6  7  1  0
  5  8  1  0
  8  9  1  0
  9 10  1  0
  8 11  1  6
 12 11  1  6
 12 13  1  0
 12 14  1  0
 14 13  1  0
M  RAD  5   3   2   7   3  10   3  11   2  13   2
M  END
>  <docking_score>  (3) 
-2.9380000000000002

$$$$
