
     RDKit          3D

  9  8  0  0  0  0  0  0  0  0999 V2000
    5.3015   -7.3439   -8.1077 N   0  0  0  0  0  0  0  0  0  0  0  0
    5.2443   -5.9985   -8.6573 C   0  0  0  0  0  0  0  0  0  0  0  0
    5.7106   -4.9808   -7.6842 C   0  0  0  0  0  0  0  0  0  0  0  0
    4.9405   -4.0408   -7.1923 C   0  0  0  0  0  0  0  0  0  0  0  0
    5.5366   -3.1160   -6.2496 C   0  0  0  0  0  0  0  0  0  0  0  0
    5.9270   -1.9131   -6.4825 C   0  0  0  0  0  0  0  0  0  0  0  0
    5.8246   -1.2590   -7.8025 C   0  0  0  0  0  0  0  0  0  0  0  0
    6.0514    0.0914   -7.7815 O   0  0  0  0  0  0  0  0  0  0  0  0
    6.4637   -1.1895   -5.4784 F   0  0  0  0  0  0  0  0  0  0  0  0
  1  2  1  0
  2  3  1  0
  3  4  2  3
  4  5  1  0
  5  6  2  3
  6  7  1  0
  7  8  1  0
  6  9  1  0
M  END
>  <docking_score>  (1) 
-3.8279999999999998

$$$$

     RDKit          3D

  9  8  0  0  0  0  0  0  0  0999 V2000
    4.5049   -3.9391   -6.5687 N   0  0  0  0  0  0  0  0  0  0  0  0
    5.4591   -3.2997   -7.4610 C   0  0  0  0  0  0  0  0  0  0  0  0
    5.3320   -1.8220   -7.4433 C   0  0  0  0  0  0  0  0  0  0  0  0
    6.1634   -1.0149   -8.0563 C   0  0  0  0  0  0  0  0  0  0  0  0
    5.9117    0.4080   -7.9500 C   0  0  0  0  0  0  0  0  0  0  0  0
    6.2605    1.1890   -6.9899 C   0  0  0  0  0  0  0  0  0  0  0  0
    7.0031    0.7389   -5.7954 C   0  0  0  0  0  0  0  0  0  0  0  0
    7.1728    1.7050   -4.8398 O   0  0  0  0  0  0  0  0  0  0  0  0
    5.9401    2.4977   -7.0567 F   0  0  0  0  0  0  0  0  0  0  0  0
  1  2  1  0
  2  3  1  0
  3  4  2  3
  4  5  1  0
  5  6  2  3
  6  7  1  0
  7  8  1  0
  6  9  1  0
M  END
>  <docking_score>  (2) 
-3.8010000000000002

$$$$

     RDKit          3D

  9  8  0  0  0  0  0  0  0  0999 V2000
    4.1756   -4.8404   -7.4257 N   0  0  0  0  0  0  0  0  0  0  0  0
    5.0226   -3.9575   -6.6393 C   0  0  0  0  0  0  0  0  0  0  0  0
    5.2336   -2.6500   -7.3072 C   0  0  0  0  0  0  0  0  0  0  0  0
    5.8914   -1.6551   -6.7631 C   0  0  0  0  0  0  0  0  0  0  0  0
    6.0168   -0.4365   -7.5367 C   0  0  0  0  0  0  0  0  0  0  0  0
    6.3746    0.7220   -7.1087 C   0  0  0  0  0  0  0  0  0  0  0  0
    6.7283    1.0034   -5.7029 C   0  0  0  0  0  0  0  0  0  0  0  0
    7.6135    0.1134   -5.1553 O   0  0  0  0  0  0  0  0  0  0  0  0
    6.4371    1.7535   -7.9760 F   0  0  0  0  0  0  0  0  0  0  0  0
  1  2  1  0
  2  3  1  0
  3  4  2  3
  4  5  1  0
  5  6  2  3
  6  7  1  0
  7  8  1  0
  6  9  1  0
M  END
>  <docking_score>  (3) 
-3.6699999999999999

$$$$
