
     RDKit          3D

 27 31  0  0  0  0  0  0  0  0999 V2000
   18.6715   -5.2587   -7.4148 O   0  0  0  0  0  0  0  0  0  0  0  0
   17.6525   -5.3819   -6.6900 C   0  0  0  0  0  0  0  0  0  0  0  0
   16.2831   -5.3700   -7.1595 C   0  0  0  0  0  0  0  0  0  0  0  0
   15.7909   -5.1745   -8.4549 C   0  0  0  0  0  0  0  0  0  0  0  0
   14.4375   -5.1987   -8.7060 C   0  0  0  0  0  0  0  0  0  0  0  0
   13.5876   -5.4232   -7.6314 C   0  0  0  0  0  0  0  0  0  0  0  0
   14.0778   -5.6150   -6.3584 C   0  0  0  0  0  0  0  0  0  0  0  0
   15.4401   -5.5883   -6.1192 C   0  0  0  0  0  0  0  0  0  0  0  0
   16.2568   -5.7535   -4.9074 C   0  0  0  0  0  0  0  0  0  0  0  0
   15.7180   -6.0223   -3.7932 O   0  0  0  0  0  0  0  0  0  0  0  0
   17.6757   -5.5598   -5.2385 C   0  0  0  0  0  0  0  0  0  0  0  0
   18.2779   -4.3944   -4.4907 C   0  0  0  0  0  0  0  0  0  0  0  0
   18.9927   -4.8550   -3.3152 N   0  0  0  0  0  0  0  0  0  0  0  0
   18.3039   -3.0951   -4.7321 C   0  0  0  0  0  0  0  0  0  0  0  0
   19.5225   -2.3332   -4.5201 C   0  0  0  0  0  0  0  0  0  0  0  0
   19.9413   -1.1625   -4.6633 O   0  0  0  0  0  0  0  0  0  0  0  0
   20.5833   -3.2357   -3.9827 N   0  0  0  0  0  0  0  0  0  0  0  0
   20.0594   -3.9849   -2.7663 C   0  0  1  0  0  0  0  0  0  0  0  0
   19.3093   -3.0288   -1.8686 C   0  0  0  0  0  0  0  0  0  0  0  0
   18.2117   -2.5069   -2.0948 C   0  0  0  0  0  0  0  0  0  0  0  0
   17.0371   -2.0843   -2.5755 C   0  0  0  0  0  0  0  0  0  0  0  0
   16.3916   -1.9583   -3.7059 C   0  0  0  0  0  0  0  0  0  0  0  0
   15.0245   -1.4125   -3.8296 C   0  0  0  0  0  0  0  0  0  0  0  0
   14.4111   -1.6366   -5.1649 C   0  0  0  0  0  0  0  0  0  0  0  0
   15.3067   -1.5120   -6.3205 C   0  0  0  0  0  0  0  0  0  0  0  0
   16.6074   -1.8867   -6.1985 C   0  0  0  0  0  0  0  0  0  0  0  0
   17.0442   -2.3807   -4.9631 C   0  0  1  0  0  0  0  0  0  0  0  0
  1  2  2  0
  2  3  1  0
  3  4  2  0
  4  5  1  0
  5  6  2  0
  6  7  1  0
  7  8  2  0
  8  9  1  0
  9 10  2  0
  9 11  1  0
 11 12  1  0
 12 13  1  0
 12 14  2  0
 14 15  1  0
 15 16  2  0
 15 17  1  0
 18 17  1  6
 18 19  1  0
 19 20  2  3
 20 21  1  0
 21 22  2  3
 22 23  1  0
 23 24  1  0
 24 25  1  0
 25 26  2  0
 27 26  1  6
 11  2  1  0
  8  3  1  0
 18 13  1  0
 27 14  1  0
 27 22  1  0
M  END
>  <docking_score>  (1) 
-6.9930000000000003

$$$$

     RDKit          3D

 27 31  0  0  0  0  0  0  0  0999 V2000
   16.5613   -3.0072   -1.4657 O   0  0  0  0  0  0  0  0  0  0  0  0
   17.3079   -3.6958   -2.2056 C   0  0  0  0  0  0  0  0  0  0  0  0
   18.7257   -3.9065   -2.0030 C   0  0  0  0  0  0  0  0  0  0  0  0
   19.5696   -3.3785   -1.0193 C   0  0  0  0  0  0  0  0  0  0  0  0
   20.9077   -3.7008   -0.9913 C   0  0  0  0  0  0  0  0  0  0  0  0
   21.3825   -4.5635   -1.9698 C   0  0  0  0  0  0  0  0  0  0  0  0
   20.5471   -5.0802   -2.9357 C   0  0  0  0  0  0  0  0  0  0  0  0
   19.2042   -4.7486   -2.9530 C   0  0  0  0  0  0  0  0  0  0  0  0
   18.0821   -5.1221   -3.8272 C   0  0  0  0  0  0  0  0  0  0  0  0
   18.2440   -5.9474   -4.7742 O   0  0  0  0  0  0  0  0  0  0  0  0
   16.8692   -4.4069   -3.4060 C   0  0  0  0  0  0  0  0  0  0  0  0
   16.3395   -3.5014   -4.4920 C   0  0  0  0  0  0  0  0  0  0  0  0
   15.3333   -4.1850   -5.2826 N   0  0  0  0  0  0  0  0  0  0  0  0
   16.5881   -2.2416   -4.8054 C   0  0  0  0  0  0  0  0  0  0  0  0
   15.5026   -1.3476   -5.1698 C   0  0  0  0  0  0  0  0  0  0  0  0
   15.3306   -0.1458   -5.4737 O   0  0  0  0  0  0  0  0  0  0  0  0
   14.2152   -2.1034   -5.1619 N   0  0  0  0  0  0  0  0  0  0  0  0
   14.3449   -3.3575   -6.0138 C   0  0  1  0  0  0  0  0  0  0  0  0
   15.0523   -3.0198   -7.3055 C   0  0  0  0  0  0  0  0  0  0  0  0
   16.2464   -2.7307   -7.4424 C   0  0  0  0  0  0  0  0  0  0  0  0
   17.5490   -2.4530   -7.3173 C   0  0  0  0  0  0  0  0  0  0  0  0
   18.4212   -2.0692   -6.4217 C   0  0  0  0  0  0  0  0  0  0  0  0
   19.8586   -1.8619   -6.6923 C   0  0  0  0  0  0  0  0  0  0  0  0
   20.6807   -1.7065   -5.4637 C   0  0  0  0  0  0  0  0  0  0  0  0
   20.0723   -0.9451   -4.3667 C   0  0  0  0  0  0  0  0  0  0  0  0
   18.7290   -1.0146   -4.1727 C   0  0  0  0  0  0  0  0  0  0  0  0
   17.9729   -1.8173   -5.0359 C   0  0  1  0  0  0  0  0  0  0  0  0
  1  2  2  0
  2  3  1  0
  3  4  2  0
  4  5  1  0
  5  6  2  0
  6  7  1  0
  7  8  2  0
  8  9  1  0
  9 10  2  0
  9 11  1  0
 11 12  1  0
 12 13  1  0
 12 14  2  0
 14 15  1  0
 15 16  2  0
 15 17  1  0
 18 17  1  1
 18 19  1  0
 19 20  2  3
 20 21  1  0
 21 22  2  3
 22 23  1  0
 23 24  1  0
 24 25  1  0
 25 26  2  0
 27 26  1  6
 11  2  1  0
  8  3  1  0
 18 13  1  0
 27 14  1  0
 27 22  1  0
M  END
>  <docking_score>  (2) 
-6.5830000000000002

$$$$

     RDKit          3D

 27 31  0  0  0  0  0  0  0  0999 V2000
   17.1862   -0.8119   -5.6837 O   0  0  0  0  0  0  0  0  0  0  0  0
   17.3130   -1.4567   -4.6127 C   0  0  0  0  0  0  0  0  0  0  0  0
   18.4667   -1.4131   -3.7393 C   0  0  0  0  0  0  0  0  0  0  0  0
   19.6736   -0.7224   -3.8972 C   0  0  0  0  0  0  0  0  0  0  0  0
   20.6641   -0.8070   -2.9448 C   0  0  0  0  0  0  0  0  0  0  0  0
   20.4197   -1.5985   -1.8307 C   0  0  0  0  0  0  0  0  0  0  0  0
   19.2298   -2.2761   -1.6806 C   0  0  0  0  0  0  0  0  0  0  0  0
   18.2422   -2.1828   -2.6449 C   0  0  0  0  0  0  0  0  0  0  0  0
   16.8990   -2.7671   -2.7757 C   0  0  0  0  0  0  0  0  0  0  0  0
   16.4146   -3.4928   -1.8576 O   0  0  0  0  0  0  0  0  0  0  0  0
   16.3101   -2.3675   -4.0617 C   0  0  0  0  0  0  0  0  0  0  0  0
   16.0160   -3.5570   -4.9441 C   0  0  0  0  0  0  0  0  0  0  0  0
   14.5921   -3.8336   -4.9723 N   0  0  0  0  0  0  0  0  0  0  0  0
   16.7867   -4.3256   -5.6941 C   0  0  0  0  0  0  0  0  0  0  0  0
   16.3515   -4.7316   -7.0193 C   0  0  0  0  0  0  0  0  0  0  0  0
   16.7838   -5.3819   -7.9973 O   0  0  0  0  0  0  0  0  0  0  0  0
   14.9837   -4.1923   -7.2779 N   0  0  0  0  0  0  0  0  0  0  0  0
   14.0517   -4.5735   -6.1371 C   0  0  1  0  0  0  0  0  0  0  0  0
   14.2706   -6.0224   -5.7686 C   0  0  0  0  0  0  0  0  0  0  0  0
   15.2590   -6.5012   -5.2011 C   0  0  0  0  0  0  0  0  0  0  0  0
   16.4203   -6.7593   -4.5894 C   0  0  0  0  0  0  0  0  0  0  0  0
   17.6174   -6.2560   -4.4347 C   0  0  0  0  0  0  0  0  0  0  0  0
   18.6880   -6.8814   -3.6317 C   0  0  0  0  0  0  0  0  0  0  0  0
   19.8465   -5.9847   -3.3803 C   0  0  0  0  0  0  0  0  0  0  0  0
   20.2431   -5.1091   -4.4891 C   0  0  0  0  0  0  0  0  0  0  0  0
   19.2899   -4.6208   -5.3258 C   0  0  0  0  0  0  0  0  0  0  0  0
   17.9555   -4.9768   -5.0938 C   0  0  1  0  0  0  0  0  0  0  0  0
  1  2  2  0
  2  3  1  0
  3  4  2  0
  4  5  1  0
  5  6  2  0
  6  7  1  0
  7  8  2  0
  8  9  1  0
  9 10  2  0
  9 11  1  0
 11 12  1  0
 12 13  1  0
 12 14  2  0
 14 15  1  0
 15 16  2  0
 15 17  1  0
 18 17  1  6
 18 19  1  0
 19 20  2  3
 20 21  1  0
 21 22  2  3
 22 23  1  0
 23 24  1  0
 24 25  1  0
 25 26  2  0
 27 26  1  6
 11  2  1  0
  8  3  1  0
 18 13  1  0
 27 14  1  0
 27 22  1  0
M  END
>  <docking_score>  (3) 
-6.5259999999999998

$$$$
