
     RDKit          3D

 23 22  0  0  0  0  0  0  0  0999 V2000
   16.3602   -3.5280   -1.2855 C   0  0  0  0  0  0  0  0  0  0  0  0
   17.1608   -4.0351   -2.2142 C   0  0  0  0  0  0  0  0  0  0  0  0
   18.6025   -3.6039   -2.2763 C   0  0  0  0  0  0  0  0  0  0  0  0
   16.6884   -5.0151   -3.1984 C   0  0  0  0  0  0  0  0  0  0  0  0
   17.6194   -6.1023   -3.4872 C   0  0  0  0  0  0  0  0  0  0  0  0
   17.6793   -6.6971   -4.7700 C   0  0  0  0  0  0  0  0  0  0  0  0
   18.8949   -6.8183   -5.5588 C   0  0  0  0  0  3  0  0  0  0  0  0
   19.8618   -5.6891   -5.2178 C   0  0  0  0  0  0  0  0  0  0  0  0
   18.6025   -6.8343   -7.0538 C   0  0  0  0  0  3  0  0  0  0  0  0
   17.1207   -6.8240   -7.2394 C   0  0  0  0  0  0  0  0  0  0  0  0
   16.6496   -5.7868   -8.2290 C   0  0  0  0  0  3  0  0  0  0  0  0
   15.1558   -5.5733   -7.9661 C   0  0  1  0  0  0  0  0  0  0  0  0
   14.9845   -5.7332   -6.4489 C   0  0  0  0  0  0  0  0  0  0  0  0
   14.8676   -4.0899   -8.2470 C   0  0  0  0  0  0  0  0  0  0  0  0
   16.2356   -3.4892   -8.6109 C   0  0  0  0  0  0  0  0  0  0  0  0
   16.4631   -2.3389   -7.6558 C   0  0  1  0  0  0  0  0  0  0  0  0
   15.0645   -1.8799   -7.1239 C   0  0  0  0  0  2  0  0  0  0  0  0
   17.2256   -2.8512   -6.4173 C   0  0  0  0  0  0  0  0  0  0  0  0
   17.2427   -1.8702   -5.3340 C   0  0  0  0  0  0  0  0  0  0  0  0
   18.1051   -0.6853   -5.4711 C   0  0  0  0  0  0  0  0  0  0  0  0
   19.4959   -0.9255   -5.9729 C   0  0  0  0  0  0  0  0  0  0  0  0
   20.1836   -1.9061   -5.0971 C   0  0  0  0  0  0  0  0  0  0  0  0
   21.3820   -2.0874   -5.0875 O   0  0  0  0  0  0  0  0  0  0  0  0
  1  2  2  0
  2  3  1  0
  2  4  1  0
  4  5  1  0
  5  6  1  0
  6  7  1  0
  7  8  1  0
  7  9  1  0
  9 10  1  0
 10 11  1  0
 11 12  1  0
 12 13  1  1
 12 14  1  0
 14 15  1  0
 15 16  1  0
 16 17  1  1
 16 18  1  0
 18 19  1  0
 19 20  1  0
 20 21  1  0
 21 22  1  0
 22 23  2  0
M  RAD  4   7   2   9   2  11   2  17   3
M  END
>  <docking_score>  (1) 
-2.9020000000000001

$$$$

     RDKit          3D

 23 22  0  0  0  0  0  0  0  0999 V2000
   17.2988   -9.5629   -5.5714 C   0  0  0  0  0  0  0  0  0  0  0  0
   17.8139   -8.3402   -5.5908 C   0  0  0  0  0  0  0  0  0  0  0  0
   17.5417   -7.4318   -6.7607 C   0  0  0  0  0  0  0  0  0  0  0  0
   18.6515   -7.8311   -4.4992 C   0  0  0  0  0  0  0  0  0  0  0  0
   18.4054   -6.4413   -4.1251 C   0  0  0  0  0  0  0  0  0  0  0  0
   18.8018   -5.9389   -2.8628 C   0  0  0  0  0  0  0  0  0  0  0  0
   19.7616   -4.8627   -2.6760 C   0  0  0  0  0  3  0  0  0  0  0  0
   21.1267   -5.4303   -2.3007 C   0  0  0  0  0  0  0  0  0  0  0  0
   19.2955   -3.8618   -1.6264 C   0  0  0  0  0  3  0  0  0  0  0  0
   19.7593   -2.5035   -2.0388 C   0  0  0  0  0  0  0  0  0  0  0  0
   18.6312   -1.5787   -2.4254 C   0  0  0  0  0  3  0  0  0  0  0  0
   17.3885   -2.4543   -2.6137 C   0  0  1  0  0  0  0  0  0  0  0  0
   16.2149   -1.6074   -2.1018 C   0  0  0  0  0  0  0  0  0  0  0  0
   17.1626   -2.5767   -4.1291 C   0  0  0  0  0  0  0  0  0  0  0  0
   17.9361   -1.3940   -4.7353 C   0  0  0  0  0  0  0  0  0  0  0  0
   18.5729   -1.9087   -6.0069 C   0  0  1  0  0  0  0  0  0  0  0  0
   19.0537   -3.3736   -5.7376 C   0  0  0  0  0  2  0  0  0  0  0  0
   17.4945   -2.0252   -7.1029 C   0  0  0  0  0  0  0  0  0  0  0  0
   16.1438   -2.0714   -6.5465 C   0  0  0  0  0  0  0  0  0  0  0  0
   15.0022   -1.8629   -7.4518 C   0  0  0  0  0  0  0  0  0  0  0  0
   15.0223   -2.6277   -8.7397 C   0  0  0  0  0  0  0  0  0  0  0  0
   14.7605   -4.0640   -8.4751 C   0  0  0  0  0  0  0  0  0  0  0  0
   15.6260   -4.8869   -8.2677 O   0  0  0  0  0  0  0  0  0  0  0  0
  1  2  2  0
  2  3  1  0
  2  4  1  0
  4  5  1  0
  5  6  1  0
  6  7  1  0
  7  8  1  0
  7  9  1  0
  9 10  1  0
 10 11  1  0
 11 12  1  0
 12 13  1  1
 12 14  1  0
 14 15  1  0
 15 16  1  0
 16 17  1  1
 16 18  1  0
 18 19  1  0
 19 20  1  0
 20 21  1  0
 21 22  1  0
 22 23  2  0
M  RAD  4   7   2   9   2  11   2  17   3
M  END
>  <docking_score>  (2) 
-2.629

$$$$

     RDKit          3D

 23 22  0  0  0  0  0  0  0  0999 V2000
   18.9358   -3.8836   -5.1534 C   0  0  0  0  0  0  0  0  0  0  0  0
   19.6853   -4.5465   -6.0249 C   0  0  0  0  0  0  0  0  0  0  0  0
   21.0665   -5.0000   -5.6316 C   0  0  0  0  0  0  0  0  0  0  0  0
   19.2129   -4.8597   -7.3781 C   0  0  0  0  0  0  0  0  0  0  0  0
   18.0257   -5.7075   -7.4398 C   0  0  0  0  0  0  0  0  0  0  0  0
   17.9406   -6.9081   -6.6954 C   0  0  0  0  0  0  0  0  0  0  0  0
   17.4842   -6.9846   -5.3169 C   0  0  0  0  0  3  0  0  0  0  0  0
   18.5450   -7.6478   -4.4442 C   0  0  0  0  0  0  0  0  0  0  0  0
   16.1587   -7.7259   -5.1978 C   0  0  0  0  0  3  0  0  0  0  0  0
   15.0552   -6.7218   -5.2630 C   0  0  0  0  0  0  0  0  0  0  0  0
   15.5082   -5.3153   -4.9570 C   0  0  0  0  0  3  0  0  0  0  0  0
   14.8240   -4.4002   -5.9771 C   0  0  1  0  0  0  0  0  0  0  0  0
   13.5583   -5.1525   -6.4114 C   0  0  0  0  0  0  0  0  0  0  0  0
   14.3149   -3.1769   -5.1981 C   0  0  0  0  0  0  0  0  0  0  0  0
   15.5861   -2.3982   -4.8211 C   0  0  0  0  0  0  0  0  0  0  0  0
   15.7704   -1.3419   -5.8876 C   0  0  1  0  0  0  0  0  0  0  0  0
   14.4546   -0.4967   -5.9510 C   0  0  0  0  0  2  0  0  0  0  0  0
   16.8700   -0.3571   -5.4415 C   0  0  0  0  0  0  0  0  0  0  0  0
   18.2099   -0.8388   -5.7710 C   0  0  0  0  0  0  0  0  0  0  0  0
   19.3610    0.0334   -5.4871 C   0  0  0  0  0  0  0  0  0  0  0  0
   20.6201   -0.6453   -5.0426 C   0  0  0  0  0  0  0  0  0  0  0  0
   20.6585   -0.7124   -3.5609 C   0  0  0  0  0  0  0  0  0  0  0  0
   19.7365   -0.3950   -2.8408 O   0  0  0  0  0  0  0  0  0  0  0  0
  1  2  2  0
  2  3  1  0
  2  4  1  0
  4  5  1  0
  5  6  1  0
  6  7  1  0
  7  8  1  0
  7  9  1  0
  9 10  1  0
 10 11  1  0
 11 12  1  0
 12 13  1  1
 12 14  1  0
 14 15  1  0
 15 16  1  0
 16 17  1  1
 16 18  1  0
 18 19  1  0
 19 20  1  0
 20 21  1  0
 21 22  1  0
 22 23  2  0
M  RAD  4   7   2   9   2  11   2  17   3
M  END
>  <docking_score>  (3) 
-2.4609999999999999

$$$$
