
     RDKit          3D

 23 24  0  0  0  0  0  0  0  0999 V2000
   18.9090   -0.9737   -4.7212 C   0  0  0  0  0  0  0  0  0  0  0  0
   19.2670   -2.4635   -4.5699 C   0  0  1  0  0  0  0  0  0  0  0  0
   20.5335   -2.4706   -3.7064 C   0  0  0  0  0  0  0  0  0  0  0  0
   20.1842   -1.5623   -2.5222 C   0  0  2  0  0  0  0  0  0  0  0  0
   21.2958   -1.3761   -1.7383 O   0  0  0  0  0  0  0  0  0  0  0  0
   19.1328   -2.2758   -1.7091 C   0  0  2  0  0  0  0  0  0  0  0  0
   19.7101   -3.4130   -1.1437 O   0  0  0  0  0  0  0  0  0  0  0  0
   17.8916   -2.6023   -2.4625 C   0  0  1  0  0  0  0  0  0  0  0  0
   16.9245   -1.6107   -2.4256 O   0  0  0  0  0  0  0  0  0  0  0  0
   18.1326   -3.1404   -3.8429 C   0  0  1  0  0  0  0  0  0  0  0  0
   16.9257   -3.0620   -4.5918 N   0  0  0  0  0  0  0  0  0  0  0  0
   16.4904   -4.2356   -5.2496 C   0  0  1  0  0  0  0  0  0  0  0  0
   16.1955   -5.4226   -4.3803 C   0  0  2  0  0  0  0  0  0  0  0  0
   17.3867   -6.2071   -3.9578 C   0  0  0  0  0  0  0  0  0  0  0  0
   18.2059   -6.4449   -5.0470 O   0  0  0  0  0  0  0  0  0  0  0  0
   19.4086   -7.0643   -4.7341 C   0  0  0  0  0  3  0  0  0  0  0  0
   19.1955   -7.8154   -3.5552 O   0  0  0  0  0  0  0  0  0  0  0  0
   15.2632   -6.2250   -5.2985 C   0  0  1  0  0  0  0  0  0  0  0  0
   14.6973   -7.3000   -4.6607 O   0  0  0  0  0  0  0  0  0  0  0  0
   14.2767   -5.1367   -5.6696 C   0  0  2  0  0  0  0  0  0  0  0  0
   13.4168   -5.5070   -6.6688 O   0  0  0  0  0  0  0  0  0  0  0  0
   15.2205   -4.0104   -6.0757 C   0  0  1  0  0  0  0  0  0  0  0  0
   14.6618   -2.7675   -5.7939 O   0  0  0  0  0  0  0  0  0  0  0  0
  2  1  1  1
  2  3  1  0
  3  4  1  0
  4  5  1  1
  4  6  1  0
  6  7  1  6
  6  8  1  0
  8  9  1  6
  8 10  1  0
 10 11  1  6
 12 11  1  1
 12 13  1  0
 13 14  1  6
 14 15  1  0
 15 16  1  0
 16 17  1  0
 13 18  1  0
 18 19  1  1
 18 20  1  0
 20 21  1  6
 20 22  1  0
 22 23  1  1
 10  2  1  0
 22 12  1  0
M  RAD  1  16   2
M  END
>  <docking_score>  (1) 
-4.3339999999999996

$$$$

     RDKit          3D

 23 24  0  0  0  0  0  0  0  0999 V2000
    7.2002   11.1896    2.1962 C   0  0  0  0  0  0  0  0  0  0  0  0
    7.4069   11.5980    3.6663 C   0  0  1  0  0  0  0  0  0  0  0  0
    8.4297   12.7382    3.6102 C   0  0  0  0  0  0  0  0  0  0  0  0
    7.8751   13.6863    2.5410 C   0  0  2  0  0  0  0  0  0  0  0  0
    8.7804   14.6895    2.2977 O   0  0  0  0  0  0  0  0  0  0  0  0
    6.6141   14.2975    3.0992 C   0  0  2  0  0  0  0  0  0  0  0  0
    6.9601   15.1163    4.1743 O   0  0  0  0  0  0  0  0  0  0  0  0
    5.5662   13.3088    3.4723 C   0  0  1  0  0  0  0  0  0  0  0  0
    4.6899   12.9921    2.4468 O   0  0  0  0  0  0  0  0  0  0  0  0
    6.0882   12.1018    4.1962 C   0  0  1  0  0  0  0  0  0  0  0  0
    5.1009   11.0780    4.1690 N   0  0  0  0  0  0  0  0  0  0  0  0
    5.2735    9.9837    5.0478 C   0  0  1  0  0  0  0  0  0  0  0  0
    4.2516    9.8282    6.1355 C   0  0  2  0  0  0  0  0  0  0  0  0
    4.4559   10.7005    7.3230 C   0  0  0  0  0  0  0  0  0  0  0  0
    3.4668   11.6664    7.3749 O   0  0  0  0  0  0  0  0  0  0  0  0
    3.9182   12.9603    7.1514 C   0  0  0  0  0  3  0  0  0  0  0  0
    2.7757   13.7784    6.9946 O   0  0  0  0  0  0  0  0  0  0  0  0
    4.4141    8.3389    6.4697 C   0  0  1  0  0  0  0  0  0  0  0  0
    3.4504    7.8881    7.3362 O   0  0  0  0  0  0  0  0  0  0  0  0
    4.3140    7.7550    5.0753 C   0  0  2  0  0  0  0  0  0  0  0  0
    4.6337    6.4246    5.0243 O   0  0  0  0  0  0  0  0  0  0  0  0
    5.2964    8.6389    4.3153 C   0  0  1  0  0  0  0  0  0  0  0  0
    4.9043    8.7920    2.9889 O   0  0  0  0  0  0  0  0  0  0  0  0
  2  1  1  6
  2  3  1  0
  3  4  1  0
  4  5  1  1
  4  6  1  0
  6  7  1  1
  6  8  1  0
  8  9  1  6
  8 10  1  0
 10 11  1  6
 12 11  1  6
 12 13  1  0
 13 14  1  1
 14 15  1  0
 15 16  1  0
 16 17  1  0
 13 18  1  0
 18 19  1  1
 18 20  1  0
 20 21  1  1
 20 22  1  0
 22 23  1  6
 10  2  1  0
 22 12  1  0
M  RAD  1  16   2
M  END
>  <docking_score>  (2) 
-4.3090000000000002

$$$$

     RDKit          3D

 23 24  0  0  0  0  0  0  0  0999 V2000
   16.1382   -5.8037   -7.1744 C   0  0  0  0  0  0  0  0  0  0  0  0
   16.2534   -5.5327   -5.6632 C   0  0  1  0  0  0  0  0  0  0  0  0
   16.0830   -6.9088   -5.0099 C   0  0  0  0  0  0  0  0  0  0  0  0
   17.0519   -7.8119   -5.7813 C   0  0  2  0  0  0  0  0  0  0  0  0
   16.8917   -9.1143   -5.3773 O   0  0  0  0  0  0  0  0  0  0  0  0
   18.4499   -7.3656   -5.4323 C   0  0  2  0  0  0  0  0  0  0  0  0
   18.6780   -7.6461   -4.0849 O   0  0  0  0  0  0  0  0  0  0  0  0
   18.7385   -5.9422   -5.7571 C   0  0  1  0  0  0  0  0  0  0  0  0
   19.2350   -5.7381   -7.0345 O   0  0  0  0  0  0  0  0  0  0  0  0
   17.6348   -4.9917   -5.3941 C   0  0  1  0  0  0  0  0  0  0  0  0
   17.8414   -3.7569   -6.0695 N   0  0  0  0  0  0  0  0  0  0  0  0
   17.9766   -2.5950   -5.2749 C   0  0  1  0  0  0  0  0  0  0  0  0
   17.6514   -2.7369   -3.8169 C   0  0  2  0  0  0  0  0  0  0  0  0
   16.2020   -2.6879   -3.4858 C   0  0  0  0  0  0  0  0  0  0  0  0
   15.6324   -1.5492   -4.0270 O   0  0  0  0  0  0  0  0  0  0  0  0
   14.4240   -1.7666   -4.6755 C   0  0  0  0  0  3  0  0  0  0  0  0
   14.7231   -2.0562   -6.0268 O   0  0  0  0  0  0  0  0  0  0  0  0
   18.4245   -1.5457   -3.2342 C   0  0  1  0  0  0  0  0  0  0  0  0
   18.4351   -1.5486   -1.8621 O   0  0  0  0  0  0  0  0  0  0  0  0
   19.7802   -1.7926   -3.8636 C   0  0  2  0  0  0  0  0  0  0  0  0
   20.6531   -0.7524   -3.6880 O   0  0  0  0  0  0  0  0  0  0  0  0
   19.3920   -2.0118   -5.3215 C   0  0  1  0  0  0  0  0  0  0  0  0
   20.2700   -2.8949   -5.9426 O   0  0  0  0  0  0  0  0  0  0  0  0
  2  1  1  6
  2  3  1  0
  3  4  1  0
  4  5  1  1
  4  6  1  0
  6  7  1  1
  6  8  1  0
  8  9  1  6
  8 10  1  0
 10 11  1  6
 12 11  1  6
 12 13  1  0
 13 14  1  6
 14 15  1  0
 15 16  1  0
 16 17  1  0
 13 18  1  0
 18 19  1  1
 18 20  1  0
 20 21  1  6
 20 22  1  0
 22 23  1  1
 10  2  1  0
 22 12  1  0
M  RAD  1  16   2
M  END
>  <docking_score>  (3) 
-4.0830000000000002

$$$$
