
     RDKit          3D

 29 29  0  0  0  0  0  0  0  0999 V2000
   19.5788   -3.8555   -7.8775 C   0  0  0  0  0  0  0  0  0  0  0  0
   18.8879   -2.7811   -7.0899 C   0  0  0  0  0  0  0  0  0  0  0  0
   17.7818   -2.1526   -7.9256 C   0  0  0  0  0  0  0  0  0  0  0  0
   19.8822   -1.7149   -6.6178 C   0  0  0  0  0  0  0  0  0  0  0  0
   19.1488   -0.5659   -6.0060 C   0  0  0  0  0  0  0  0  0  0  0  0
   18.8212   -0.7597   -4.5502 C   0  0  0  0  0  0  0  0  0  0  0  0
   20.0959   -0.6400   -3.7564 C   0  0  1  0  0  0  0  0  0  0  0  0
   20.6382    0.7526   -3.8000 C   0  0  0  0  0  0  0  0  0  0  0  0
   19.9601   -1.1848   -2.3509 C   0  0  0  0  0  3  0  0  0  0  0  0
   18.5112   -1.4066   -2.0619 C   0  0  0  0  0  0  0  0  0  0  0  0
   18.2803   -2.9084   -1.8857 C   0  0  0  0  0  0  0  0  0  0  0  0
   16.8426   -3.1715   -2.2834 C   0  0  1  0  0  0  0  0  0  0  0  0
   16.2001   -1.8316   -2.5764 C   0  0  0  0  0  0  0  0  0  0  0  0
   16.8724   -3.9497   -3.5807 C   0  0  0  0  0  3  0  0  0  0  0  0
   18.2851   -4.2965   -3.9563 C   0  0  0  0  0  0  0  0  0  0  0  0
   18.4147   -5.8067   -3.9651 C   0  0  1  0  0  0  0  0  0  0  0  0
   18.0418   -6.2979   -2.5825 C   0  0  0  0  0  0  0  0  0  0  0  0
   17.4166   -6.3513   -4.9442 C   0  0  0  0  0  0  0  0  0  0  0  0
   17.9685   -6.4940   -6.3300 C   0  0  0  0  0  0  0  0  0  0  0  0
   17.4373   -7.7459   -7.0229 C   0  0  2  0  0  0  0  0  0  0  0  0
   17.1950   -8.7805   -5.9242 C   0  0  0  0  0  0  0  0  0  0  0  0
   18.5265   -8.2886   -7.9235 C   0  0  0  0  0  3  0  0  0  0  0  0
   19.8370   -8.2850   -7.1648 C   0  0  1  0  0  0  0  0  0  0  0  0
   20.8016   -7.2759   -7.6959 C   0  0  0  0  0  0  0  0  0  0  0  0
   19.5503   -8.1611   -5.7053 C   0  0  0  0  0  3  0  0  0  0  0  0
   20.6687   -8.2097   -4.9090 O   0  0  0  0  0  0  0  0  0  0  0  0
   20.4392   -7.4046   -3.7937 C   0  0  0  0  0  0  0  0  0  0  0  0
   19.8176   -6.1392   -4.3102 C   0  0  0  0  0  0  0  0  0  0  0  0
   20.5333   -5.4386   -5.0072 O   0  0  0  0  0  0  0  0  0  0  0  0
  1  2  1  0
  2  3  1  0
  2  4  1  0
  4  5  1  0
  5  6  1  0
  6  7  1  0
  7  8  1  1
  7  9  1  0
  9 10  1  0
 10 11  1  0
 11 12  1  0
 12 13  1  6
 12 14  1  0
 14 15  1  0
 15 16  1  0
 16 17  1  1
 16 18  1  0
 18 19  1  0
 19 20  1  0
 20 21  1  1
 20 22  1  0
 22 23  1  0
 23 24  1  6
 23 25  1  0
 25 26  1  0
 26 27  1  0
 27 28  1  0
 28 29  2  0
 28 16  1  0
M  RAD  4   9   2  14   2  22   2  25   2
M  END
>  <docking_score>  (1) 
-3.6589999999999998

$$$$

     RDKit          3D

 29 29  0  0  0  0  0  0  0  0999 V2000
    8.2443   15.6735   11.6335 C   0  0  0  0  0  0  0  0  0  0  0  0
    8.6949   14.5308   12.4955 C   0  0  0  0  0  0  0  0  0  0  0  0
   10.2075   14.5686   12.6612 C   0  0  0  0  0  0  0  0  0  0  0  0
    8.2475   13.1868   11.9110 C   0  0  0  0  0  0  0  0  0  0  0  0
    6.8098   13.2556   11.5106 C   0  0  0  0  0  0  0  0  0  0  0  0
    5.9080   12.3711   12.3285 C   0  0  0  0  0  0  0  0  0  0  0  0
    4.6214   12.1736   11.5702 C   0  0  1  0  0  0  0  0  0  0  0  0
    3.5422   13.0735   12.0811 C   0  0  0  0  0  0  0  0  0  0  0  0
    4.8101   12.2582   10.0709 C   0  0  0  0  0  3  0  0  0  0  0  0
    4.0483   11.1445    9.4295 C   0  0  0  0  0  0  0  0  0  0  0  0
    4.4494    9.8339   10.1083 C   0  0  0  0  0  0  0  0  0  0  0  0
    3.9763    8.7175    9.2005 C   0  0  1  0  0  0  0  0  0  0  0  0
    2.6785    8.1861    9.7727 C   0  0  0  0  0  0  0  0  0  0  0  0
    3.6557    9.3378    7.8581 C   0  0  0  0  0  3  0  0  0  0  0  0
    4.3651    8.6054    6.7549 C   0  0  0  0  0  0  0  0  0  0  0  0
    4.0730    9.3188    5.4497 C   0  0  1  0  0  0  0  0  0  0  0  0
    2.7619    8.7746    4.9236 C   0  0  0  0  0  0  0  0  0  0  0  0
    3.8914   10.7777    5.7502 C   0  0  0  0  0  0  0  0  0  0  0  0
    5.1664   11.5600    5.6631 C   0  0  0  0  0  0  0  0  0  0  0  0
    4.9373   12.9489    5.0731 C   0  0  2  0  0  0  0  0  0  0  0  0
    3.7674   12.8187    4.0980 C   0  0  0  0  0  0  0  0  0  0  0  0
    6.1597   13.3293    4.2651 C   0  0  0  0  0  3  0  0  0  0  0  0
    6.5674   12.1494    3.4080 C   0  0  1  0  0  0  0  0  0  0  0  0
    7.8551   11.5376    3.8538 C   0  0  0  0  0  0  0  0  0  0  0  0
    5.4233   11.1947    3.3239 C   0  0  0  0  0  3  0  0  0  0  0  0
    5.6585   10.1088    2.5158 O   0  0  0  0  0  0  0  0  0  0  0  0
    4.9597    9.0219    3.0400 C   0  0  0  0  0  0  0  0  0  0  0  0
    5.1969    9.0456    4.5224 C   0  0  0  0  0  0  0  0  0  0  0  0
    6.3425    8.8305    4.8833 O   0  0  0  0  0  0  0  0  0  0  0  0
  1  2  1  0
  2  3  1  0
  2  4  1  0
  4  5  1  0
  5  6  1  0
  6  7  1  0
  7  8  1  1
  7  9  1  0
  9 10  1  0
 10 11  1  0
 11 12  1  0
 12 13  1  1
 12 14  1  0
 14 15  1  0
 15 16  1  0
 16 17  1  6
 16 18  1  0
 18 19  1  0
 19 20  1  0
 20 21  1  6
 20 22  1  0
 22 23  1  0
 23 24  1  1
 23 25  1  0
 25 26  1  0
 26 27  1  0
 27 28  1  0
 28 29  2  0
 28 16  1  0
M  RAD  4   9   2  14   2  22   2  25   2
M  END
>  <docking_score>  (2) 
-3.2959999999999998

$$$$

     RDKit          3D

 29 29  0  0  0  0  0  0  0  0999 V2000
   15.9653   -1.6178   -1.9627 C   0  0  0  0  0  0  0  0  0  0  0  0
   17.1656   -2.4235   -1.5600 C   0  0  0  0  0  0  0  0  0  0  0  0
   18.2523   -2.3037   -2.6191 C   0  0  0  0  0  0  0  0  0  0  0  0
   16.7941   -3.8922   -1.3290 C   0  0  0  0  0  0  0  0  0  0  0  0
   16.9906   -4.6740   -2.5869 C   0  0  0  0  0  0  0  0  0  0  0  0
   15.7354   -5.3271   -3.0990 C   0  0  0  0  0  0  0  0  0  0  0  0
   16.0623   -6.0423   -4.3838 C   0  0  1  0  0  0  0  0  0  0  0  0
   17.2165   -6.9769   -4.2108 C   0  0  0  0  0  0  0  0  0  0  0  0
   14.8505   -6.6985   -5.0097 C   0  0  0  0  0  3  0  0  0  0  0  0
   13.9021   -5.6311   -5.4491 C   0  0  0  0  0  0  0  0  0  0  0  0
   14.0096   -5.4877   -6.9681 C   0  0  0  0  0  0  0  0  0  0  0  0
   15.3534   -4.8457   -7.2449 C   0  0  1  0  0  0  0  0  0  0  0  0
   15.4360   -4.5902   -8.7356 C   0  0  0  0  0  0  0  0  0  0  0  0
   15.3559   -3.4983   -6.5565 C   0  0  0  0  0  3  0  0  0  0  0  0
   16.2261   -2.5263   -7.3013 C   0  0  0  0  0  0  0  0  0  0  0  0
   17.4853   -2.3002   -6.4884 C   0  0  1  0  0  0  0  0  0  0  0  0
   17.1513   -1.2865   -5.4147 C   0  0  0  0  0  0  0  0  0  0  0  0
   17.8434   -3.5948   -5.8197 C   0  0  0  0  0  0  0  0  0  0  0  0
   18.7636   -4.4466   -6.6401 C   0  0  0  0  0  0  0  0  0  0  0  0
   19.7842   -5.1751   -5.7698 C   0  0  2  0  0  0  0  0  0  0  0  0
   20.0538   -4.2706   -4.5675 C   0  0  0  0  0  0  0  0  0  0  0  0
   21.0771   -5.2897   -6.5491 C   0  0  0  0  0  3  0  0  0  0  0  0
   21.3799   -3.9542   -7.1955 C   0  0  1  0  0  0  0  0  0  0  0  0
   21.2394   -3.9943   -8.6820 C   0  0  0  0  0  0  0  0  0  0  0  0
   20.5682   -2.8969   -6.5239 C   0  0  0  0  0  3  0  0  0  0  0  0
   20.8083   -1.6268   -6.9892 O   0  0  0  0  0  0  0  0  0  0  0  0
   19.6207   -0.9018   -6.8957 C   0  0  0  0  0  0  0  0  0  0  0  0
   18.5362   -1.8043   -7.4091 C   0  0  0  0  0  0  0  0  0  0  0  0
   18.5906   -2.0830   -8.5958 O   0  0  0  0  0  0  0  0  0  0  0  0
  1  2  1  0
  2  3  1  0
  2  4  1  0
  4  5  1  0
  5  6  1  0
  6  7  1  0
  7  8  1  1
  7  9  1  0
  9 10  1  0
 10 11  1  0
 11 12  1  0
 12 13  1  6
 12 14  1  0
 14 15  1  0
 15 16  1  0
 16 17  1  1
 16 18  1  0
 18 19  1  0
 19 20  1  0
 20 21  1  1
 20 22  1  0
 22 23  1  0
 23 24  1  6
 23 25  1  0
 25 26  1  0
 26 27  1  0
 27 28  1  0
 28 29  2  0
 28 16  1  0
M  RAD  4   9   2  14   2  22   2  25   2
M  END
>  <docking_score>  (3) 
-3.1800000000000002

$$$$
