
     RDKit          3D

 20 21  0  0  0  0  0  0  0  0999 V2000
   16.0268   -7.1428   -5.1910 O   0  0  0  0  0  0  0  0  0  0  0  0
   16.3882   -6.0905   -4.3416 C   0  0  2  0  0  0  0  0  0  0  0  0
   16.5064   -4.7873   -5.0779 C   0  0  0  0  0  3  0  0  0  0  0  0
   15.2179   -4.2777   -5.5102 N   0  0  0  0  0  0  0  0  0  0  0  0
   15.3807   -3.7601   -6.8407 C   0  0  2  0  0  0  0  0  0  0  0  0
   16.0199   -4.6976   -7.7988 C   0  0  0  0  0  0  0  0  0  0  0  0
   15.0587   -5.6206   -8.2147 O   0  0  0  0  0  0  0  0  0  0  0  0
   16.0335   -2.4148   -6.7504 C   0  0  1  0  0  0  0  0  0  0  0  0
   16.4913   -1.9926   -7.9955 O   0  0  0  0  0  0  0  0  0  0  0  0
   14.9525   -1.4696   -6.2087 C   0  0  2  0  0  0  0  0  0  0  0  0
   15.4646   -0.2685   -5.7977 O   0  0  0  0  0  0  0  0  0  0  0  0
   14.2210   -2.1489   -5.2645 O   0  0  0  0  0  0  0  0  0  0  0  0
   14.9132   -3.1502   -4.6155 C   0  0  2  0  0  0  0  0  0  0  0  0
   16.0853   -2.6324   -4.0523 O   0  0  0  0  0  0  0  0  0  0  0  0
   16.1554   -3.0882   -2.8164 O   0  0  0  0  0  0  0  0  0  0  0  0
   17.3697   -3.5677   -2.5628 O   0  0  0  0  0  0  0  0  0  0  0  0
   17.2088   -4.8593   -2.3282 O   0  0  0  0  0  0  0  0  0  0  0  0
   18.1894   -5.5738   -2.8281 O   0  0  0  0  0  0  0  0  0  0  0  0
   17.7882   -6.4310   -3.8269 C   0  0  2  0  0  0  0  0  0  0  0  0
   18.6887   -6.2946   -4.8920 O   0  0  0  0  0  0  0  0  0  0  0  0
  2  1  1  6
  2  3  1  0
  3  4  1  0
  4  5  1  0
  5  6  1  6
  6  7  1  0
  5  8  1  0
  8  9  1  6
  8 10  1  0
 10 11  1  1
 10 12  1  0
 13 12  1  6
 13 14  1  0
 14 15  1  0
 15 16  1  0
 16 17  1  0
 17 18  1  0
 18 19  1  0
 19 20  1  6
 19  2  1  0
 13  4  1  0
M  RAD  1   3   2
M  END
>  <docking_score>  (1) 
-5.2649999999999997

$$$$

     RDKit          3D

 20 21  0  0  0  0  0  0  0  0999 V2000
   17.7557   -6.4963   -3.8870 O   0  0  0  0  0  0  0  0  0  0  0  0
   17.7608   -5.2312   -3.2881 C   0  0  2  0  0  0  0  0  0  0  0  0
   17.4829   -4.1377   -4.2788 C   0  0  0  0  0  3  0  0  0  0  0  0
   16.1073   -4.1474   -4.7417 N   0  0  0  0  0  0  0  0  0  0  0  0
   16.1239   -3.8942   -6.1559 C   0  0  2  0  0  0  0  0  0  0  0  0
   17.0367   -4.7700   -6.9338 C   0  0  0  0  0  0  0  0  0  0  0  0
   16.3532   -5.9465   -7.2462 O   0  0  0  0  0  0  0  0  0  0  0  0
   16.3280   -2.4261   -6.3732 C   0  0  1  0  0  0  0  0  0  0  0  0
   16.6533   -2.1537   -7.6992 O   0  0  0  0  0  0  0  0  0  0  0  0
   14.9993   -1.7647   -5.9823 C   0  0  2  0  0  0  0  0  0  0  0  0
   15.1090   -0.4068   -5.8498 O   0  0  0  0  0  0  0  0  0  0  0  0
   14.4981   -2.4223   -4.8849 O   0  0  0  0  0  0  0  0  0  0  0  0
   15.4549   -3.0062   -4.0809 C   0  0  2  0  0  0  0  0  0  0  0  0
   16.4007   -2.0499   -3.6931 O   0  0  0  0  0  0  0  0  0  0  0  0
   16.5880   -2.1944   -2.3953 O   0  0  0  0  0  0  0  0  0  0  0  0
   17.8866   -2.2166   -2.1098 O   0  0  0  0  0  0  0  0  0  0  0  0
   18.1285   -3.4170   -1.6099 O   0  0  0  0  0  0  0  0  0  0  0  0
   19.2897   -3.8858   -2.0018 O   0  0  0  0  0  0  0  0  0  0  0  0
   19.1890   -5.0131   -2.7846 C   0  0  2  0  0  0  0  0  0  0  0  0
   20.0206   -4.8336   -3.8982 O   0  0  0  0  0  0  0  0  0  0  0  0
  2  1  1  6
  2  3  1  0
  3  4  1  0
  4  5  1  0
  5  6  1  6
  6  7  1  0
  5  8  1  0
  8  9  1  6
  8 10  1  0
 10 11  1  1
 10 12  1  0
 13 12  1  6
 13 14  1  0
 14 15  1  0
 15 16  1  0
 16 17  1  0
 17 18  1  0
 18 19  1  0
 19 20  1  6
 19  2  1  0
 13  4  1  0
M  RAD  1   3   2
M  END
>  <docking_score>  (2) 
-5.0460000000000003

$$$$

     RDKit          3D

 20 21  0  0  0  0  0  0  0  0999 V2000
   17.5129   -5.5801   -2.4073 O   0  0  0  0  0  0  0  0  0  0  0  0
   16.8657   -4.4823   -2.9862 C   0  0  2  0  0  0  0  0  0  0  0  0
   16.6272   -4.6792   -4.4554 C   0  0  0  0  0  3  0  0  0  0  0  0
   15.6160   -5.6859   -4.7214 N   0  0  0  0  0  0  0  0  0  0  0  0
   16.0743   -6.4789   -5.8284 C   0  0  2  0  0  0  0  0  0  0  0  0
   17.4498   -7.0187   -5.6793 C   0  0  0  0  0  0  0  0  0  0  0  0
   17.3557   -8.3800   -5.3846 O   0  0  0  0  0  0  0  0  0  0  0  0
   15.8359   -5.7120   -7.0930 C   0  0  1  0  0  0  0  0  0  0  0  0
   16.5213   -6.2802   -8.1634 O   0  0  0  0  0  0  0  0  0  0  0  0
   14.3188   -5.7573   -7.3207 C   0  0  2  0  0  0  0  0  0  0  0  0
   13.9050   -4.8660   -8.2735 O   0  0  0  0  0  0  0  0  0  0  0  0
   13.6972   -5.6420   -6.1007 O   0  0  0  0  0  0  0  0  0  0  0  0
   14.4196   -4.9465   -5.1535 C   0  0  2  0  0  0  0  0  0  0  0  0
   14.7680   -3.6852   -5.6504 O   0  0  0  0  0  0  0  0  0  0  0  0
   14.4925   -2.8069   -4.7054 O   0  0  0  0  0  0  0  0  0  0  0  0
   15.5145   -1.9746   -4.5281 O   0  0  0  0  0  0  0  0  0  0  0  0
   15.9417   -2.1812   -3.2936 O   0  0  0  0  0  0  0  0  0  0  0  0
   17.2496   -2.1150   -3.2105 O   0  0  0  0  0  0  0  0  0  0  0  0
   17.8367   -3.3073   -2.8539 C   0  0  2  0  0  0  0  0  0  0  0  0
   18.9111   -3.5302   -3.7255 O   0  0  0  0  0  0  0  0  0  0  0  0
  2  1  1  6
  2  3  1  0
  3  4  1  0
  4  5  1  0
  5  6  1  1
  6  7  1  0
  5  8  1  0
  8  9  1  6
  8 10  1  0
 10 11  1  6
 10 12  1  0
 13 12  1  6
 13 14  1  0
 14 15  1  0
 15 16  1  0
 16 17  1  0
 17 18  1  0
 18 19  1  0
 19 20  1  6
 19  2  1  0
 13  4  1  0
M  RAD  1   3   2
M  END
>  <docking_score>  (3) 
-4.9640000000000004

$$$$
