
     RDKit          3D

 18 20  0  0  0  0  0  0  0  0999 V2000
   19.2327   -5.1510   -2.8919 C   0  0  0  0  0  0  0  0  0  0  0  0
   19.8456   -4.8899   -4.1834 O   0  0  0  0  0  0  0  0  0  0  0  0
   18.9357   -4.7392   -5.2047 C   0  0  0  0  0  0  0  0  0  0  0  0
   18.0570   -5.6981   -5.3902 C   0  0  0  0  0  0  0  0  0  0  0  0
   17.3301   -6.0274   -4.1126 C   0  0  0  0  0  0  0  0  0  0  0  0
   17.7543   -5.2613   -3.0879 C   0  0  0  0  0  0  0  0  0  0  0  0
   16.8501   -4.5335   -2.2103 C   0  0  0  0  0  0  0  0  0  0  0  0
   16.4042   -3.2075   -2.8618 C   0  0  1  0  0  0  0  0  0  0  0  0
   17.4710   -2.1929   -2.4818 C   0  0  0  0  0  0  0  0  0  0  0  0
   16.3902   -3.3739   -4.3780 C   0  0  1  0  0  0  0  0  0  0  0  0
   14.9690   -3.5061   -4.8019 C   0  0  0  0  0  0  0  0  0  0  0  0
   14.2511   -2.4117   -5.0344 C   0  0  0  0  0  0  0  0  0  0  0  0
   14.9361   -1.0986   -4.8499 C   0  0  2  0  0  0  0  0  0  0  0  0
   14.2410   -0.1244   -5.8113 C   0  0  0  0  0  0  0  0  0  0  0  0
   16.3577   -1.1783   -5.3068 C   0  0  0  0  0  0  0  0  0  0  0  0
   17.0894   -2.2914   -5.0832 C   0  0  0  0  0  0  0  0  0  0  0  0
   18.4858   -2.3080   -5.5640 C   0  0  0  0  0  0  0  0  0  0  0  0
   18.9358   -3.6095   -6.0193 N   0  0  0  0  0  0  0  0  0  0  0  0
  1  2  1  0
  2  3  1  0
  3  4  2  0
  4  5  1  0
  5  6  2  0
  6  7  1  0
  7  8  1  0
  8  9  1  6
  8 10  1  0
 10 11  1  6
 11 12  2  0
 12 13  1  0
 13 14  1  6
 13 15  1  0
 15 16  2  0
 16 17  1  0
 17 18  1  0
  6  1  1  0
 18  3  1  0
 16 10  1  0
M  END
>  <docking_score>  (1) 
-5.6200000000000001

$$$$

     RDKit          3D

 18 20  0  0  0  0  0  0  0  0999 V2000
   15.0190   -3.4716   -5.0665 C   0  0  0  0  0  0  0  0  0  0  0  0
   15.8854   -4.2927   -5.8954 O   0  0  0  0  0  0  0  0  0  0  0  0
   17.2011   -3.8899   -5.8852 C   0  0  0  0  0  0  0  0  0  0  0  0
   17.4622   -2.6387   -6.1891 C   0  0  0  0  0  0  0  0  0  0  0  0
   16.6390   -1.6912   -5.3562 C   0  0  0  0  0  0  0  0  0  0  0  0
   15.8339   -2.3525   -4.5010 C   0  0  0  0  0  0  0  0  0  0  0  0
   15.7559   -2.0442   -3.0810 C   0  0  0  0  0  0  0  0  0  0  0  0
   16.9188   -2.7067   -2.3125 C   0  0  1  0  0  0  0  0  0  0  0  0
   16.4266   -4.1018   -1.9611 C   0  0  0  0  0  0  0  0  0  0  0  0
   18.1283   -2.8209   -3.2348 C   0  0  1  0  0  0  0  0  0  0  0  0
   19.0984   -1.7642   -2.8358 C   0  0  0  0  0  0  0  0  0  0  0  0
   19.9681   -2.0089   -1.8605 C   0  0  0  0  0  0  0  0  0  0  0  0
   19.9090   -3.3560   -1.2206 C   0  0  2  0  0  0  0  0  0  0  0  0
   21.3337   -3.6502   -0.7308 C   0  0  0  0  0  0  0  0  0  0  0  0
   19.6015   -4.4083   -2.2375 C   0  0  0  0  0  0  0  0  0  0  0  0
   18.7269   -4.1624   -3.2370 C   0  0  0  0  0  0  0  0  0  0  0  0
   18.4707   -5.2423   -4.2114 C   0  0  0  0  0  0  0  0  0  0  0  0
   18.2300   -4.7711   -5.5620 N   0  0  0  0  0  0  0  0  0  0  0  0
  1  2  1  0
  2  3  1  0
  3  4  2  0
  4  5  1  0
  5  6  2  0
  6  7  1  0
  7  8  1  0
  8  9  1  6
  8 10  1  0
 10 11  1  1
 11 12  2  0
 12 13  1  0
 13 14  1  6
 13 15  1  0
 15 16  2  0
 16 17  1  0
 17 18  1  0
  6  1  1  0
 18  3  1  0
 16 10  1  0
M  END
>  <docking_score>  (2) 
-5.5380000000000003

$$$$

     RDKit          3D

 18 20  0  0  0  0  0  0  0  0999 V2000
   14.5011   -3.3505   -5.4475 C   0  0  0  0  0  0  0  0  0  0  0  0
   14.5910   -4.7521   -5.0746 O   0  0  0  0  0  0  0  0  0  0  0  0
   15.8834   -5.2141   -4.9757 C   0  0  0  0  0  0  0  0  0  0  0  0
   16.6758   -5.0466   -6.0102 C   0  0  0  0  0  0  0  0  0  0  0  0
   16.6878   -3.6096   -6.4619 C   0  0  0  0  0  0  0  0  0  0  0  0
   15.8848   -2.8420   -5.6983 C   0  0  0  0  0  0  0  0  0  0  0  0
   16.3156   -1.5870   -5.1011 C   0  0  0  0  0  0  0  0  0  0  0  0
   17.1083   -1.8429   -3.8019 C   0  0  1  0  0  0  0  0  0  0  0  0
   16.0626   -1.9224   -2.7008 C   0  0  0  0  0  0  0  0  0  0  0  0
   17.8251   -3.1850   -3.9082 C   0  0  1  0  0  0  0  0  0  0  0  0
   19.2647   -2.9059   -4.1660 C   0  0  0  0  0  0  0  0  0  0  0  0
   20.0821   -2.6849   -3.1412 C   0  0  0  0  0  0  0  0  0  0  0  0
   19.4852   -2.7337   -1.7741 C   0  0  2  0  0  0  0  0  0  0  0  0
   20.6184   -3.1751   -0.8374 C   0  0  0  0  0  0  0  0  0  0  0  0
   18.4465   -3.8062   -1.6918 C   0  0  0  0  0  0  0  0  0  0  0  0
   17.6199   -4.0428   -2.7334 C   0  0  0  0  0  0  0  0  0  0  0  0
   16.6190   -5.1194   -2.5899 C   0  0  0  0  0  0  0  0  0  0  0  0
   16.3474   -5.8380   -3.8202 N   0  0  0  0  0  0  0  0  0  0  0  0
  1  2  1  0
  2  3  1  0
  3  4  2  0
  4  5  1  0
  5  6  2  0
  6  7  1  0
  7  8  1  0
  8  9  1  1
  8 10  1  0
 10 11  1  1
 11 12  2  0
 12 13  1  0
 13 14  1  1
 13 15  1  0
 15 16  2  0
 16 17  1  0
 17 18  1  0
  6  1  1  0
 18  3  1  0
 16 10  1  0
M  END
>  <docking_score>  (3) 
-5.3040000000000003

$$$$
