
     RDKit          3D

 12 13  0  0  0  0  0  0  0  0999 V2000
   14.3311   -7.5663   -4.2543 O   0  0  0  0  0  0  0  0  0  0  0  0
   14.7203   -6.5159   -4.6135 C   0  0  0  0  0  0  0  0  0  0  0  0
   14.0123   -5.6905   -5.7137 C   0  0  0  0  0  0  0  0  0  0  0  0
   14.6219   -4.5617   -6.0134 C   0  0  0  0  0  0  0  0  0  0  0  0
   14.4002   -3.2229   -5.3597 C   0  0  0  0  0  0  0  0  0  0  0  0
   15.6514   -3.3618   -4.2714 C   0  0  0  0  0  0  0  0  0  0  0  0
   15.7955   -2.3761   -3.4881 C   0  0  0  0  0  0  0  0  0  0  0  0
   14.9228   -1.1737   -3.5207 C   0  0  0  0  0  0  0  0  0  0  0  0
   15.8680   -4.4913   -6.8890 C   0  0  0  0  0  0  0  0  0  0  0  0
   17.0109   -4.6084   -5.6891 C   0  0  0  0  0  0  0  0  0  0  0  0
   16.1811   -4.6434   -4.6021 C   0  0  0  0  0  0  0  0  0  0  0  0
   15.9487   -5.9022   -4.0158 O   0  0  0  0  0  0  0  0  0  0  0  0
  1  2  2  0
  2  3  1  0
  3  4  2  0
  4  5  1  0
  5  6  1  0
  6  7  2  3
  7  8  1  0
  4  9  1  0
  9 10  1  0
 10 11  2  0
 11 12  1  0
 12  2  1  0
 11  6  1  0
M  END
>  <docking_score>  (1) 
-4.423

$$$$

     RDKit          3D

 12 13  0  0  0  0  0  0  0  0999 V2000
   18.1272   -1.9198   -3.5154 O   0  0  0  0  0  0  0  0  0  0  0  0
   17.1552   -1.9998   -4.1732 C   0  0  0  0  0  0  0  0  0  0  0  0
   17.1261   -1.6302   -5.6750 C   0  0  0  0  0  0  0  0  0  0  0  0
   15.9370   -1.7401   -6.2315 C   0  0  0  0  0  0  0  0  0  0  0  0
   15.3637   -2.9704   -6.8844 C   0  0  0  0  0  0  0  0  0  0  0  0
   14.5474   -3.5069   -5.5372 C   0  0  0  0  0  0  0  0  0  0  0  0
   13.9073   -4.5897   -5.6911 C   0  0  0  0  0  0  0  0  0  0  0  0
   13.8740   -5.3427   -6.9719 C   0  0  0  0  0  0  0  0  0  0  0  0
   14.8298   -0.7080   -6.0487 C   0  0  0  0  0  0  0  0  0  0  0  0
   14.0960   -1.3772   -4.7169 C   0  0  0  0  0  0  0  0  0  0  0  0
   14.8696   -2.4975   -4.5833 C   0  0  0  0  0  0  0  0  0  0  0  0
   15.8620   -2.4734   -3.5849 O   0  0  0  0  0  0  0  0  0  0  0  0
  1  2  2  0
  2  3  1  0
  3  4  2  0
  4  5  1  0
  5  6  1  0
  6  7  2  3
  7  8  1  0
  4  9  1  0
  9 10  1  0
 10 11  2  0
 11 12  1  0
 12  2  1  0
 11  6  1  0
M  END
>  <docking_score>  (2) 
-4.3780000000000001

$$$$

     RDKit          3D

 12 13  0  0  0  0  0  0  0  0999 V2000
    5.9049    9.8424    1.7493 O   0  0  0  0  0  0  0  0  0  0  0  0
    6.2323   10.8540    2.2528 C   0  0  0  0  0  0  0  0  0  0  0  0
    7.1333   10.9125    3.5088 C   0  0  0  0  0  0  0  0  0  0  0  0
    7.3537   12.1324    3.9545 C   0  0  0  0  0  0  0  0  0  0  0  0
    8.4748   13.0489    3.5396 C   0  0  0  0  0  0  0  0  0  0  0  0
    7.6029   13.8603    2.3775 C   0  0  0  0  0  0  0  0  0  0  0  0
    8.2411   14.7629    1.7580 C   0  0  0  0  0  0  0  0  0  0  0  0
    9.6646   15.0901    2.0322 C   0  0  0  0  0  0  0  0  0  0  0  0
    6.3315   12.9251    4.7616 C   0  0  0  0  0  0  0  0  0  0  0  0
    5.5715   13.6916    3.4988 C   0  0  0  0  0  0  0  0  0  0  0  0
    6.3338   13.2170    2.4668 C   0  0  0  0  0  0  0  0  0  0  0  0
    5.7879   12.1718    1.6974 O   0  0  0  0  0  0  0  0  0  0  0  0
  1  2  2  0
  2  3  1  0
  3  4  2  0
  4  5  1  0
  5  6  1  0
  6  7  2  3
  7  8  1  0
  4  9  1  0
  9 10  1  0
 10 11  2  0
 11 12  1  0
 12  2  1  0
 11  6  1  0
M  END
>  <docking_score>  (3) 
-4.3159999999999998

$$$$
