
     RDKit          3D

 24 25  0  0  0  0  0  0  0  0999 V2000
   17.0199   -8.0109   -5.7201 C   0  0  0  0  0  0  0  0  0  0  0  0
   16.7185   -6.6487   -6.2621 C   0  0  0  0  0  3  0  0  0  0  0  0
   16.2802   -5.6916   -5.1466 C   0  0  2  0  0  0  0  0  0  0  0  0
   14.9180   -5.1112   -5.4621 C   0  0  2  0  0  0  0  0  0  0  0  0
   13.8998   -6.0213   -5.2914 O   0  0  0  0  0  0  0  0  0  0  0  0
   14.9976   -4.5794   -6.8862 C   0  0  2  0  0  0  0  0  0  0  0  0
   14.4648   -5.6052   -7.7004 O   0  0  0  0  0  0  0  0  0  0  0  0
   16.4717   -4.4876   -7.2282 C   0  0  1  0  0  0  0  0  0  0  0  0
   16.6314   -3.9594   -8.4961 O   0  0  0  0  0  0  0  0  0  0  0  0
   17.1943   -3.7956   -6.2576 O   0  0  0  0  0  0  0  0  0  0  0  0
   17.2648   -4.5634   -5.1201 C   0  0  1  0  0  0  0  0  0  0  0  0
   17.0641   -3.7550   -3.8557 C   0  0  1  0  0  0  0  0  0  0  0  0
   17.4102   -4.5158   -2.6416 C   0  0  1  0  0  0  0  0  0  0  0  0
   18.0619   -5.8368   -2.8646 C   0  0  0  0  0  0  0  0  0  0  0  0
   18.0694   -3.8323   -1.6610 O   0  0  0  0  0  0  0  0  0  0  0  0
   19.4412   -3.9456   -1.8857 C   0  0  0  0  0  3  0  0  0  0  0  0
   19.8448   -2.7737   -2.5189 O   0  0  0  0  0  0  0  0  0  0  0  0
   19.0374   -1.7445   -1.9941 C   0  0  1  0  0  0  0  0  0  0  0  0
   19.7545   -0.5566   -1.8740 O   0  0  0  0  0  0  0  0  0  0  0  0
   17.7794   -1.5964   -2.7881 C   0  0  2  0  0  0  0  0  0  0  0  0
   16.6240   -1.6612   -2.0500 O   0  0  0  0  0  0  0  0  0  0  0  0
   17.7218   -2.4355   -4.0181 C   0  0  1  0  0  0  0  0  0  0  0  0
   18.9448   -2.4868   -4.6602 O   0  0  0  0  0  0  0  0  0  0  0  0
   19.0914   -1.3980   -5.3845 O   0  0  0  0  0  0  0  0  0  0  0  0
  1  2  1  0
  3  2  1  6
  3  4  1  0
  4  5  1  6
  4  6  1  0
  6  7  1  6
  6  8  1  0
  8  9  1  6
  8 10  1  0
 11 10  1  6
 11 12  1  0
 12 13  1  1
 13 14  1  6
 13 15  1  0
 15 16  1  0
 16 17  1  0
 17 18  1  0
 18 19  1  6
 18 20  1  0
 20 21  1  1
 20 22  1  0
 22 23  1  1
 23 24  1  0
 11  3  1  0
 22 12  1  0
M  RAD  2   2   2  16   2
M  END
>  <docking_score>  (1) 
-5.1929999999999996

$$$$

     RDKit          3D

 24 25  0  0  0  0  0  0  0  0999 V2000
   21.3818   -3.6942   -4.4253 C   0  0  0  0  0  0  0  0  0  0  0  0
   21.2030   -2.5842   -3.4373 C   0  0  0  0  0  3  0  0  0  0  0  0
   19.9116   -1.8022   -3.7082 C   0  0  2  0  0  0  0  0  0  0  0  0
   19.7830   -0.6524   -2.7319 C   0  0  2  0  0  0  0  0  0  0  0  0
   20.6485    0.3808   -3.0103 O   0  0  0  0  0  0  0  0  0  0  0  0
   19.9984   -1.2412   -1.3448 C   0  0  2  0  0  0  0  0  0  0  0  0
   21.3600   -1.0069   -1.0447 O   0  0  0  0  0  0  0  0  0  0  0  0
   19.8468   -2.7429   -1.4879 C   0  0  1  0  0  0  0  0  0  0  0  0
   19.9772   -3.3515   -0.2531 O   0  0  0  0  0  0  0  0  0  0  0  0
   18.6667   -3.0921   -2.1426 O   0  0  0  0  0  0  0  0  0  0  0  0
   18.7686   -2.7394   -3.4668 C   0  0  1  0  0  0  0  0  0  0  0  0
   17.4953   -2.1239   -4.0075 C   0  0  1  0  0  0  0  0  0  0  0  0
   17.5932   -1.7992   -5.4419 C   0  0  1  0  0  0  0  0  0  0  0  0
   18.8135   -2.2930   -6.1394 C   0  0  0  0  0  0  0  0  0  0  0  0
   16.4884   -2.0550   -6.2017 O   0  0  0  0  0  0  0  0  0  0  0  0
   16.5778   -3.3579   -6.6913 C   0  0  0  0  0  3  0  0  0  0  0  0
   15.7902   -4.1545   -5.8652 O   0  0  0  0  0  0  0  0  0  0  0  0
   14.7054   -3.3508   -5.4609 C   0  0  1  0  0  0  0  0  0  0  0  0
   13.5371   -4.1015   -5.3552 O   0  0  0  0  0  0  0  0  0  0  0  0
   15.0366   -2.5962   -4.2136 C   0  0  2  0  0  0  0  0  0  0  0  0
   14.8554   -1.2384   -4.2989 O   0  0  0  0  0  0  0  0  0  0  0  0
   16.3428   -2.9627   -3.5974 C   0  0  1  0  0  0  0  0  0  0  0  0
   16.5782   -4.3230   -3.6679 O   0  0  0  0  0  0  0  0  0  0  0  0
   16.1020   -4.8943   -2.5823 O   0  0  0  0  0  0  0  0  0  0  0  0
  1  2  1  0
  3  2  1  1
  3  4  1  0
  4  5  1  6
  4  6  1  0
  6  7  1  6
  6  8  1  0
  8  9  1  1
  8 10  1  0
 11 10  1  1
 11 12  1  0
 12 13  1  6
 13 14  1  6
 13 15  1  0
 15 16  1  0
 16 17  1  0
 17 18  1  0
 18 19  1  1
 18 20  1  0
 20 21  1  6
 20 22  1  0
 22 23  1  6
 23 24  1  0
 11  3  1  0
 22 12  1  0
M  RAD  2   2   2  16   2
M  END
>  <docking_score>  (2) 
-4.6529999999999996

$$$$

     RDKit          3D

 24 25  0  0  0  0  0  0  0  0999 V2000
   20.8573   -5.6665   -6.8795 C   0  0  0  0  0  0  0  0  0  0  0  0
   19.7135   -6.2291   -6.0950 C   0  0  0  0  0  3  0  0  0  0  0  0
   19.2259   -5.2352   -5.0335 C   0  0  2  0  0  0  0  0  0  0  0  0
   19.2453   -5.8819   -3.6649 C   0  0  2  0  0  0  0  0  0  0  0  0
   20.5188   -6.0280   -3.1638 O   0  0  0  0  0  0  0  0  0  0  0  0
   18.5144   -7.2095   -3.8072 C   0  0  2  0  0  0  0  0  0  0  0  0
   19.5275   -8.1775   -3.9960 O   0  0  0  0  0  0  0  0  0  0  0  0
   17.7458   -7.1384   -5.1122 C   0  0  1  0  0  0  0  0  0  0  0  0
   17.0083   -8.2943   -5.2906 O   0  0  0  0  0  0  0  0  0  0  0  0
   16.9726   -5.9822   -5.2044 O   0  0  0  0  0  0  0  0  0  0  0  0
   17.8039   -4.8995   -5.3625 C   0  0  1  0  0  0  0  0  0  0  0  0
   17.3699   -3.7042   -4.5406 C   0  0  1  0  0  0  0  0  0  0  0  0
   18.0292   -2.4578   -4.9700 C   0  0  1  0  0  0  0  0  0  0  0  0
   18.8335   -2.5442   -6.2211 C   0  0  0  0  0  0  0  0  0  0  0  0
   17.2538   -1.3346   -4.9930 O   0  0  0  0  0  0  0  0  0  0  0  0
   16.6656   -1.2265   -6.2529 C   0  0  0  0  0  3  0  0  0  0  0  0
   15.3699   -1.7214   -6.1374 O   0  0  0  0  0  0  0  0  0  0  0  0
   14.9341   -1.3850   -4.8400 C   0  0  1  0  0  0  0  0  0  0  0  0
   13.5767   -1.0733   -4.8320 O   0  0  0  0  0  0  0  0  0  0  0  0
   15.2997   -2.4541   -3.8610 C   0  0  2  0  0  0  0  0  0  0  0  0
   16.0085   -2.0156   -2.7705 O   0  0  0  0  0  0  0  0  0  0  0  0
   15.8884   -3.6784   -4.4731 C   0  0  1  0  0  0  0  0  0  0  0  0
   15.2610   -4.0098   -5.6593 O   0  0  0  0  0  0  0  0  0  0  0  0
   14.0708   -4.5014   -5.3885 O   0  0  0  0  0  0  0  0  0  0  0  0
  1  2  1  0
  3  2  1  6
  3  4  1  0
  4  5  1  6
  4  6  1  0
  6  7  1  6
  6  8  1  0
  8  9  1  1
  8 10  1  0
 11 10  1  1
 11 12  1  0
 12 13  1  6
 13 14  1  6
 13 15  1  0
 15 16  1  0
 16 17  1  0
 17 18  1  0
 18 19  1  6
 18 20  1  0
 20 21  1  1
 20 22  1  0
 22 23  1  6
 23 24  1  0
 11  3  1  0
 22 12  1  0
M  RAD  2   2   2  16   2
M  END
>  <docking_score>  (3) 
-4.3490000000000002

$$$$
