
     RDKit          3D

 37 40  0  0  0  0  0  0  0  0999 V2000
   19.9310   -3.9501   -5.8655 C   0  0  0  0  0  0  0  0  0  0  0  0
   19.5864   -2.8767   -5.1289 C   0  0  0  0  0  0  0  0  0  0  0  0
   20.6167   -1.8258   -4.9376 C   0  0  0  0  0  0  0  0  0  0  0  0
   20.3311   -1.0689   -3.6522 C   0  0  0  0  0  0  0  0  0  0  0  0
   19.7620   -2.0715   -2.6848 C   0  0  1  0  0  0  0  0  0  0  0  0
   19.9015   -1.6694   -1.2499 C   0  0  0  0  0  0  0  0  0  0  0  0
   21.3818   -1.3837   -1.0066 C   0  0  0  0  0  0  0  0  0  0  0  0
   19.0712   -0.4584   -0.9355 C   0  0  0  0  0  0  0  0  0  0  0  0
   19.4326   -2.8416   -0.3974 C   0  0  0  0  0  0  0  0  0  0  0  0
   19.1737   -4.0696   -1.2601 C   0  0  0  0  0  0  0  0  0  0  0  0
   18.0414   -3.7112   -2.2068 C   0  0  0  0  0  0  0  0  0  0  0  0
   18.3570   -2.4644   -2.9999 C   0  0  1  0  0  0  0  0  0  0  0  0
   17.3464   -1.4158   -2.5678 C   0  0  0  0  0  0  0  0  0  0  0  0
   18.2609   -2.7010   -4.4973 C   0  0  1  0  0  0  0  0  0  0  0  0
   17.5356   -1.5189   -5.0926 C   0  0  0  0  0  0  0  0  0  0  0  0
   16.1474   -1.3899   -4.6605 C   0  0  0  0  0  0  0  0  0  0  0  0
   15.0798   -1.5950   -5.3784 C   0  0  0  0  0  0  0  0  0  0  0  0
   13.7708   -1.4062   -4.7410 C   0  0  0  0  0  0  0  0  0  0  0  0
   13.4347   -0.3494   -4.1842 O   0  0  0  0  0  0  0  0  0  0  0  0
   15.2016   -2.0059   -6.7950 C   0  0  0  0  0  0  0  0  0  0  0  0
   14.2331   -3.0556   -7.1784 C   0  0  0  0  0  0  0  0  0  0  0  0
   13.1964   -3.1131   -6.4285 O   0  0  0  0  0  0  0  0  0  0  0  0
   14.4014   -3.8919   -8.2236 O   0  0  0  0  0  0  0  0  0  0  0  0
   15.3910   -4.8218   -8.5431 C   0  0  0  0  0  0  0  0  0  0  0  0
   15.4873   -5.8446   -7.5197 C   0  0  0  0  0  0  0  0  0  0  0  0
   16.4724   -6.6279   -7.2317 C   0  0  0  0  0  0  0  0  0  0  0  0
   16.6843   -7.6720   -6.2528 N   0  0  0  0  0  0  0  0  0  0  0  0
   15.6558   -8.0180   -5.2690 C   0  0  0  0  0  0  0  0  0  0  0  0
   15.4933   -7.0149   -4.1839 C   0  0  0  0  0  0  0  0  0  0  0  0
   15.4971   -5.5926   -4.6511 C   0  0  0  0  0  0  0  0  0  0  0  0
   17.9338   -8.3209   -6.3303 C   0  0  0  0  0  0  0  0  0  0  0  0
   18.3959   -8.3766   -7.7983 C   0  0  0  0  0  0  0  0  0  0  0  0
   17.9857   -6.5889   -8.1394 S   0  0  0  0  0  0  0  0  0  0  0  0
   19.1482   -5.7159   -7.3975 C   0  0  0  0  0  0  0  0  0  0  0  0
   18.8906   -5.0389   -6.0772 C   0  0  2  0  0  0  0  0  0  0  0  0
   17.6091   -4.1846   -6.2961 C   0  0  0  0  0  0  0  0  0  0  0  0
   17.9375   -3.3963   -7.4330 F   0  0  0  0  0  0  0  0  0  0  0  0
  1  2  2  3
  2  3  1  0
  3  4  1  0
  5  4  1  6
  5  6  1  0
  6  7  1  0
  6  8  1  0
  6  9  1  0
  9 10  1  0
 10 11  1  0
 11 12  1  0
 12 13  1  1
 12 14  1  0
 14 15  1  6
 15 16  1  0
 16 17  2  0
 17 18  1  0
 18 19  2  0
 17 20  1  0
 20 21  1  0
 21 22  2  0
 21 23  1  0
 23 24  1  0
 24 25  1  0
 25 26  2  3
 26 27  1  0
 27 28  1  0
 28 29  1  0
 29 30  1  0
 27 31  1  0
 31 32  1  0
 33 32  1  1
 33 34  2  3
 34 35  1  0
 35 36  1  6
 36 37  1  0
 35  1  1  0
 14  2  1  0
 12  5  1  0
 33 26  1  0
M  END
>  <docking_score>  (1) 
-1.893

$$$$
