
     RDKit          3D

 30 32  0  0  0  0  0  0  0  0999 V2000
    4.5950    7.7619    2.4377 C   0  0  0  0  0  0  0  0  0  0  0  0
    4.4878    9.0446    2.2392 C   0  0  0  0  0  0  0  0  0  0  0  0
    5.6299    9.7947    1.7393 C   0  0  0  0  0  0  0  0  0  0  0  0
    5.8482   10.9855    2.2790 C   0  0  0  0  0  0  0  0  0  0  0  0
    6.9746   11.8140    1.8399 C   0  0  0  0  0  0  0  0  0  0  0  0
    7.4685   12.6980    2.9916 C   0  0  0  0  0  0  0  0  0  0  0  0
    6.4047   12.8664    3.9357 N   0  0  0  0  0  0  0  0  0  0  0  0
    6.8613   13.1193    5.2885 C   0  0  0  0  0  0  0  0  0  0  0  0
    5.9387   14.0719    5.9738 C   0  0  0  0  0  0  0  0  0  0  0  0
    5.3333   13.4750    7.2288 C   0  0  0  0  0  0  0  0  0  0  0  0
    4.0217   12.9686    6.9047 N   0  0  0  0  0  0  0  0  0  0  0  0
    3.3834   11.7072    7.9018 S   0  0  2  0  0  0  0  0  0  0  0  0
    3.2014   12.1606    9.6186 C   0  0  0  0  0  0  0  0  0  0  0  0
    3.3322   13.5076    5.8146 C   0  0  0  0  0  0  0  0  0  0  0  0
    2.5931   12.8010    5.0713 N   0  0  0  0  0  0  0  0  0  0  0  0
    2.2622   11.4712    5.0744 C   0  0  0  0  0  0  0  0  0  0  0  0
    2.9813   10.3913    5.1219 C   0  0  0  0  0  0  0  0  0  0  0  0
    4.3997   10.4414    5.1866 N   0  0  0  0  0  0  0  0  0  0  0  0
    5.0759   10.4065    6.2874 C   0  0  0  0  0  0  0  0  0  0  0  0
    4.2633   10.3110    7.4779 N   0  0  0  0  0  0  0  0  0  0  0  0
    4.2505    8.8934    8.3006 S   0  0  2  0  0  0  0  0  0  0  0  0
    3.9461    7.6249    7.5281 O   0  0  0  0  0  0  0  0  0  0  0  0
    3.1694    7.1901    6.4770 C   0  0  0  0  0  0  0  0  0  0  0  0
    2.3321    6.1669    6.5064 C   0  0  0  0  0  0  0  0  0  0  0  0
    4.1212    8.9766   10.1251 C   0  0  0  0  0  0  0  0  0  0  0  0
    2.3020    9.0714    5.1035 C   0  0  0  0  0  0  0  0  0  0  0  0
    3.2345    7.8997    5.1544 C   0  0  2  0  0  0  0  0  0  0  0  0
    3.0379    6.9289    4.0880 C   0  0  0  0  0  0  0  0  0  0  0  0
    3.6019    6.8435    2.9209 C   0  0  0  0  0  0  0  0  0  0  0  0
    3.0655    5.4470    1.8916 S   0  0  0  0  0  0  0  0  0  0  0  0
  1  2  2  3
  2  3  1  0
  3  4  2  3
  4  5  1  0
  5  6  1  0
  6  7  1  0
  7  8  1  0
  8  9  1  0
  9 10  1  0
 10 11  1  0
 11 12  1  0
 12 13  1  1
 11 14  1  0
 14 15  2  3
 15 16  1  0
 16 17  2  3
 17 18  1  0
 18 19  2  3
 19 20  1  0
 20 21  1  0
 21 22  1  0
 22 23  1  0
 23 24  2  0
 21 25  1  1
 17 26  1  0
 27 26  1  1
 27 28  1  0
 28 29  2  3
 29 30  1  0
 29  1  1  0
 20 12  1  0
 27 23  1  0
M  END
>  <docking_score>  (1) 
-3.931

$$$$

     RDKit          3D

 30 32  0  0  0  0  0  0  0  0999 V2000
    6.1868   12.7176    4.6550 C   0  0  0  0  0  0  0  0  0  0  0  0
    6.1225   13.8785    5.2419 C   0  0  0  0  0  0  0  0  0  0  0  0
    7.3475   14.5472    5.6533 C   0  0  0  0  0  0  0  0  0  0  0  0
    7.3328   15.1539    6.8317 C   0  0  0  0  0  0  0  0  0  0  0  0
    8.5199   15.8540    7.3308 C   0  0  0  0  0  0  0  0  0  0  0  0
    8.5579   15.8155    8.8633 C   0  0  0  0  0  0  0  0  0  0  0  0
    7.2276   15.6161    9.3551 N   0  0  0  0  0  0  0  0  0  0  0  0
    7.1769   14.9647   10.6497 C   0  0  0  0  0  0  0  0  0  0  0  0
    6.0489   15.5139   11.4585 C   0  0  0  0  0  0  0  0  0  0  0  0
    5.0594   14.4379   11.8598 C   0  0  0  0  0  0  0  0  0  0  0  0
    3.9568   14.4641   10.9296 N   0  0  0  0  0  0  0  0  0  0  0  0
    3.0435   13.0082   10.7316 S   0  0  2  0  0  0  0  0  0  0  0  0
    2.2624   12.4319   12.2295 C   0  0  0  0  0  0  0  0  0  0  0  0
    3.6772   15.6451   10.2357 C   0  0  0  0  0  0  0  0  0  0  0  0
    3.2624   15.6404    9.0416 N   0  0  0  0  0  0  0  0  0  0  0  0
    2.9857   14.6356    8.1518 C   0  0  0  0  0  0  0  0  0  0  0  0
    3.6707   13.6071    7.7535 C   0  0  0  0  0  0  0  0  0  0  0  0
    4.9756   13.3422    8.2491 N   0  0  0  0  0  0  0  0  0  0  0  0
    5.2259   12.5617    9.2483 C   0  0  0  0  0  0  0  0  0  0  0  0
    4.0518   11.9634    9.8401 N   0  0  0  0  0  0  0  0  0  0  0  0
    3.7895   10.3629    9.6028 S   0  0  2  0  0  0  0  0  0  0  0  0
    3.8066    9.8423    8.1791 O   0  0  0  0  0  0  0  0  0  0  0  0
    3.4569   10.2372    6.9067 C   0  0  0  0  0  0  0  0  0  0  0  0
    2.6887    9.5589    6.0709 C   0  0  0  0  0  0  0  0  0  0  0  0
    3.0297    9.4188   10.9754 C   0  0  0  0  0  0  0  0  0  0  0  0
    3.0749   12.6882    6.7512 C   0  0  0  0  0  0  0  0  0  0  0  0
    3.9610   11.5440    6.3634 C   0  0  2  0  0  0  0  0  0  0  0  0
    4.1739   11.4082    4.9301 C   0  0  0  0  0  0  0  0  0  0  0  0
    5.1116   11.8953    4.1744 C   0  0  0  0  0  0  0  0  0  0  0  0
    5.0043   11.4616    2.4144 S   0  0  0  0  0  0  0  0  0  0  0  0
  1  2  2  3
  2  3  1  0
  3  4  2  3
  4  5  1  0
  5  6  1  0
  6  7  1  0
  7  8  1  0
  8  9  1  0
  9 10  1  0
 10 11  1  0
 11 12  1  0
 12 13  1  1
 11 14  1  0
 14 15  2  3
 15 16  1  0
 16 17  2  3
 17 18  1  0
 18 19  2  3
 19 20  1  0
 20 21  1  0
 21 22  1  0
 22 23  1  0
 23 24  2  0
 21 25  1  6
 17 26  1  0
 27 26  1  6
 27 28  1  0
 28 29  2  3
 29 30  1  0
 29  1  1  0
 20 12  1  0
 27 23  1  0
M  END
>  <docking_score>  (2) 
-2.794

$$$$

     RDKit          3D

 30 32  0  0  0  0  0  0  0  0999 V2000
    5.7003   13.0963    9.4261 C   0  0  0  0  0  0  0  0  0  0  0  0
    5.7435   14.2017   10.1135 C   0  0  0  0  0  0  0  0  0  0  0  0
    7.0296   14.8035   10.4309 C   0  0  0  0  0  0  0  0  0  0  0  0
    7.1733   15.3035   11.6500 C   0  0  0  0  0  0  0  0  0  0  0  0
    8.4331   15.9295   12.0613 C   0  0  0  0  0  0  0  0  0  0  0  0
    8.6494   15.7544   13.5693 C   0  0  0  0  0  0  0  0  0  0  0  0
    7.3801   15.5422   14.1980 N   0  0  0  0  0  0  0  0  0  0  0  0
    7.4601   14.7799   15.4289 C   0  0  0  0  0  0  0  0  0  0  0  0
    6.4535   15.2805   16.4110 C   0  0  0  0  0  0  0  0  0  0  0  0
    5.4830   14.1958   16.8345 C   0  0  0  0  0  0  0  0  0  0  0  0
    4.2804   14.3293   16.0486 N   0  0  0  0  0  0  0  0  0  0  0  0
    3.3027   12.9177   15.8378 S   0  0  2  0  0  0  0  0  0  0  0  0
    2.6841   12.2285   17.3638 C   0  0  0  0  0  0  0  0  0  0  0  0
    3.9604   15.5731   15.4966 C   0  0  0  0  0  0  0  0  0  0  0  0
    3.4084   15.6837   14.3647 N   0  0  0  0  0  0  0  0  0  0  0  0
    2.9964   14.7682   13.4320 C   0  0  0  0  0  0  0  0  0  0  0  0
    3.5956   13.7640   12.8681 C   0  0  0  0  0  0  0  0  0  0  0  0
    4.9402   13.4268   13.1795 N   0  0  0  0  0  0  0  0  0  0  0  0
    5.2801   12.5553   14.0712 C   0  0  0  0  0  0  0  0  0  0  0  0
    4.1645   11.9335   14.7461 N   0  0  0  0  0  0  0  0  0  0  0  0
    3.8236   10.3667   14.4061 S   0  0  2  0  0  0  0  0  0  0  0  0
    3.6565    9.9741   12.9514 O   0  0  0  0  0  0  0  0  0  0  0  0
    3.1731   10.4881   11.7684 C   0  0  0  0  0  0  0  0  0  0  0  0
    2.2902    9.9042   10.9757 C   0  0  0  0  0  0  0  0  0  0  0  0
    3.1993    9.3220   15.7741 C   0  0  0  0  0  0  0  0  0  0  0  0
    2.8564   12.9513   11.8696 C   0  0  0  0  0  0  0  0  0  0  0  0
    3.6528   11.8262   11.2822 C   0  0  2  0  0  0  0  0  0  0  0  0
    3.6915   11.8134    9.8274 C   0  0  0  0  0  0  0  0  0  0  0  0
    4.5496   12.3443    9.0093 C   0  0  0  0  0  0  0  0  0  0  0  0
    4.2224   12.0710    7.2442 S   0  0  0  0  0  0  0  0  0  0  0  0
  1  2  2  3
  2  3  1  0
  3  4  2  3
  4  5  1  0
  5  6  1  0
  6  7  1  0
  7  8  1  0
  8  9  1  0
  9 10  1  0
 10 11  1  0
 11 12  1  0
 12 13  1  1
 11 14  1  0
 14 15  2  3
 15 16  1  0
 16 17  2  3
 17 18  1  0
 18 19  2  3
 19 20  1  0
 20 21  1  0
 21 22  1  0
 22 23  1  0
 23 24  2  0
 21 25  1  1
 17 26  1  0
 27 26  1  6
 27 28  1  0
 28 29  2  3
 29 30  1  0
 29  1  1  0
 20 12  1  0
 27 23  1  0
M  END
>  <docking_score>  (3) 
-2.7200000000000002

$$$$
