
     RDKit          3D

 20 20  0  0  0  0  0  0  0  0999 V2000
   17.7511   -1.5055   -2.3229 O   0  0  0  0  0  0  0  0  0  0  0  0
   16.4633   -1.9700   -2.1775 C   0  0  0  0  0  0  0  0  0  0  0  0
   15.7461   -1.8722   -3.4978 C   0  0  0  0  0  3  0  0  0  0  0  0
   15.4784   -3.2209   -4.0079 N   0  0  0  0  0  0  0  0  0  0  0  0
   16.1301   -3.3322   -5.3077 C   0  0  2  0  0  0  0  0  0  0  0  0
   15.1788   -3.6725   -6.4096 C   0  0  0  0  0  0  0  0  0  0  0  0
   14.0300   -4.3159   -5.9837 O   0  0  0  0  0  0  0  0  0  0  0  0
   13.7335   -5.4490   -6.7392 C   0  0  0  0  0  3  0  0  0  0  0  0
   14.7147   -5.7014   -7.6761 O   0  0  0  0  0  0  0  0  0  0  0  0
   17.3000   -4.2866   -5.2286 C   0  0  2  0  0  0  0  0  0  0  0  0
   17.6786   -4.6408   -6.5086 O   0  0  0  0  0  0  0  0  0  0  0  0
   16.9723   -5.4196   -4.5036 O   0  0  0  0  0  0  0  0  0  0  0  0
   17.5605   -5.4686   -3.2552 C   0  0  0  0  0  3  0  0  0  0  0  0
   18.9016   -5.8936   -3.3133 O   0  0  0  0  0  0  0  0  0  0  0  0
   19.7187   -4.8648   -2.8196 C   0  0  1  0  0  0  0  0  0  0  0  0
   19.7506   -3.8836   -3.8092 O   0  0  0  0  0  0  0  0  0  0  0  0
   19.1258   -4.4134   -1.6432 O   0  0  0  0  0  0  0  0  0  0  0  0
   19.2249   -3.0236   -1.5989 C   0  0  1  0  0  0  0  0  0  0  0  0
   20.6672   -2.5774   -1.4969 C   0  0  0  0  0  0  0  0  0  0  0  0
   18.5980   -2.4333   -2.6773 O   0  0  0  0  0  0  0  0  0  0  0  0
  1  2  1  0
  2  3  1  0
  3  4  1  0
  4  5  1  0
  5  6  1  6
  6  7  1  0
  7  8  1  0
  8  9  1  0
  5 10  1  0
 10 11  1  6
 10 12  1  0
 12 13  1  0
 13 14  1  0
 14 15  1  0
 15 16  1  6
 15 17  1  0
 17 18  1  0
 18 19  1  6
 18 20  1  0
 20  1  1  0
M  RAD  3   3   2   8   2  13   2
M  END
>  <docking_score>  (1) 
-4.5800000000000001

$$$$

     RDKit          3D

 20 20  0  0  0  0  0  0  0  0999 V2000
   15.7564   -1.6061   -2.5188 O   0  0  0  0  0  0  0  0  0  0  0  0
   17.1263   -1.7427   -2.5044 C   0  0  0  0  0  0  0  0  0  0  0  0
   17.4846   -3.1209   -2.0151 C   0  0  0  0  0  3  0  0  0  0  0  0
   18.0742   -3.8905   -3.1155 N   0  0  0  0  0  0  0  0  0  0  0  0
   17.2453   -5.0740   -3.3123 C   0  0  2  0  0  0  0  0  0  0  0  0
   18.0092   -6.3511   -3.1691 C   0  0  0  0  0  0  0  0  0  0  0  0
   19.3223   -6.2737   -3.5992 O   0  0  0  0  0  0  0  0  0  0  0  0
   19.6730   -7.3162   -4.4552 C   0  0  0  0  0  3  0  0  0  0  0  0
   18.6550   -8.2412   -4.5670 O   0  0  0  0  0  0  0  0  0  0  0  0
   16.5006   -4.9813   -4.6248 C   0  0  2  0  0  0  0  0  0  0  0  0
   16.0079   -6.2294   -4.9514 O   0  0  0  0  0  0  0  0  0  0  0  0
   17.3264   -4.5213   -5.6363 O   0  0  0  0  0  0  0  0  0  0  0  0
   17.0560   -3.2245   -6.0265 C   0  0  0  0  0  3  0  0  0  0  0  0
   15.9500   -3.1478   -6.8944 O   0  0  0  0  0  0  0  0  0  0  0  0
   14.9571   -2.3646   -6.2856 C   0  0  1  0  0  0  0  0  0  0  0  0
   14.4000   -3.1537   -5.2806 O   0  0  0  0  0  0  0  0  0  0  0  0
   15.5937   -1.2336   -5.7811 O   0  0  0  0  0  0  0  0  0  0  0  0
   15.0505   -0.9361   -4.5322 C   0  0  1  0  0  0  0  0  0  0  0  0
   13.5951   -0.5380   -4.6455 C   0  0  0  0  0  0  0  0  0  0  0  0
   15.2117   -1.9803   -3.6444 O   0  0  0  0  0  0  0  0  0  0  0  0
  1  2  1  0
  2  3  1  0
  3  4  1  0
  4  5  1  0
  5  6  1  6
  6  7  1  0
  7  8  1  0
  8  9  1  0
  5 10  1  0
 10 11  1  6
 10 12  1  0
 12 13  1  0
 13 14  1  0
 14 15  1  0
 15 16  1  1
 15 17  1  0
 17 18  1  0
 18 19  1  6
 18 20  1  0
 20  1  1  0
M  RAD  3   3   2   8   2  13   2
M  END
>  <docking_score>  (2) 
-4.5179999999999998

$$$$

     RDKit          3D

 20 20  0  0  0  0  0  0  0  0999 V2000
   14.8139   -6.6434   -5.5527 O   0  0  0  0  0  0  0  0  0  0  0  0
   14.3923   -5.6262   -6.3790 C   0  0  0  0  0  0  0  0  0  0  0  0
   13.9315   -4.4625   -5.5420 C   0  0  0  0  0  3  0  0  0  0  0  0
   14.8578   -3.3392   -5.7175 N   0  0  0  0  0  0  0  0  0  0  0  0
   15.3952   -3.0084   -4.4028 C   0  0  2  0  0  0  0  0  0  0  0  0
   15.1303   -1.5921   -4.0042 C   0  0  0  0  0  0  0  0  0  0  0  0
   15.0418   -0.7138   -5.0701 O   0  0  0  0  0  0  0  0  0  0  0  0
   13.9333    0.1270   -4.9868 C   0  0  0  0  0  3  0  0  0  0  0  0
   12.7857   -0.5793   -4.6893 O   0  0  0  0  0  0  0  0  0  0  0  0
   16.8604   -3.3735   -4.3273 C   0  0  2  0  0  0  0  0  0  0  0  0
   17.4233   -2.7501   -3.2311 O   0  0  0  0  0  0  0  0  0  0  0  0
   17.5294   -2.9960   -5.4791 O   0  0  0  0  0  0  0  0  0  0  0  0
   17.8758   -4.0569   -6.2923 C   0  0  0  0  0  3  0  0  0  0  0  0
   19.0312   -4.7218   -5.8391 O   0  0  0  0  0  0  0  0  0  0  0  0
   18.6935   -6.0501   -5.5370 C   0  0  1  0  0  0  0  0  0  0  0  0
   17.9754   -6.0077   -4.3430 O   0  0  0  0  0  0  0  0  0  0  0  0
   17.9274   -6.5195   -6.6009 O   0  0  0  0  0  0  0  0  0  0  0  0
   16.8848   -7.2926   -6.0924 C   0  0  1  0  0  0  0  0  0  0  0  0
   17.4050   -8.5413   -5.4146 C   0  0  0  0  0  0  0  0  0  0  0  0
   16.0790   -6.5647   -5.2407 O   0  0  0  0  0  0  0  0  0  0  0  0
  1  2  1  0
  2  3  1  0
  3  4  1  0
  4  5  1  0
  5  6  1  6
  6  7  1  0
  7  8  1  0
  8  9  1  0
  5 10  1  0
 10 11  1  1
 10 12  1  0
 12 13  1  0
 13 14  1  0
 14 15  1  0
 15 16  1  1
 15 17  1  0
 17 18  1  0
 18 19  1  1
 18 20  1  0
 20  1  1  0
M  RAD  3   3   2   8   2  13   2
M  END
>  <docking_score>  (3) 
-4.3570000000000002

$$$$
