
     RDKit          3D

 20 20  0  0  0  0  0  0  0  0999 V2000
   18.3084   -8.5572   -5.0123 O   0  0  0  0  0  0  0  0  0  0  0  0
   19.2085   -7.5066   -4.9213 C   0  0  0  0  0  0  0  0  0  0  0  0
   18.5116   -6.1511   -4.9968 C   0  0  0  0  0  3  0  0  0  0  0  0
   19.1211   -5.2591   -4.0726 N   0  0  0  0  0  0  0  0  0  0  0  0
   19.2278   -3.9022   -4.5087 C   0  0  2  0  0  0  0  0  0  0  0  0
   19.3015   -3.7175   -5.9842 C   0  0  0  0  0  0  0  0  0  0  0  0
   18.2415   -2.8998   -6.3715 O   0  0  0  0  0  0  0  0  0  0  0  0
   20.3956   -3.2824   -3.7718 C   0  0  1  0  0  0  0  0  0  0  0  0
   20.3368   -1.8993   -3.7647 O   0  0  0  0  0  0  0  0  0  0  0  0
   20.2671   -3.7694   -2.3205 C   0  0  2  0  0  0  0  0  0  0  0  0
   20.9743   -4.9644   -2.1709 O   0  0  0  0  0  0  0  0  0  0  0  0
   18.9180   -4.0695   -2.1293 O   0  0  0  0  0  0  0  0  0  0  0  0
   18.5796   -5.2870   -2.7503 C   0  0  1  0  0  0  0  0  0  0  0  0
   17.0750   -5.4106   -2.7403 C   0  0  0  0  0  0  0  0  0  0  0  0
   16.5247   -4.1751   -2.4191 O   0  0  0  0  0  0  0  0  0  0  0  0
   15.8545   -3.6612   -3.4174 O   0  0  0  0  0  0  0  0  0  0  0  0
   16.1211   -2.3123   -3.5147 C   0  0  2  0  0  0  0  0  0  0  0  0
   16.2413   -1.7456   -2.1151 C   0  0  0  0  0  0  0  0  0  0  0  0
   14.8152   -1.4429   -4.3934 S   0  0  0  0  0  0  0  0  0  0  0  0
   14.8258   -1.7667   -5.8659 O   0  0  0  0  0  0  0  0  0  0  0  0
  1  2  1  0
  2  3  1  0
  3  4  1  0
  4  5  1  0
  5  6  1  6
  6  7  1  0
  5  8  1  0
  8  9  1  1
  8 10  1  0
 10 11  1  6
 10 12  1  0
 12 13  1  0
 13 14  1  6
 14 15  1  0
 15 16  1  0
 16 17  1  0
 17 18  1  1
 17 19  1  0
 19 20  2  0
 13  4  1  0
M  RAD  1   3   2
M  END
>  <docking_score>  (1) 
-3.3999999999999999

$$$$

     RDKit          3D

 20 20  0  0  0  0  0  0  0  0999 V2000
   14.5341   -8.1094   -4.3198 O   0  0  0  0  0  0  0  0  0  0  0  0
   14.4849   -6.7583   -4.6264 C   0  0  0  0  0  0  0  0  0  0  0  0
   15.8456   -6.2234   -5.0637 C   0  0  0  0  0  3  0  0  0  0  0  0
   16.3908   -5.4231   -4.0225 N   0  0  0  0  0  0  0  0  0  0  0  0
   17.8145   -5.2978   -4.0265 C   0  0  2  0  0  0  0  0  0  0  0  0
   18.5467   -6.4391   -4.6414 C   0  0  0  0  0  0  0  0  0  0  0  0
   19.3709   -5.9340   -5.6453 O   0  0  0  0  0  0  0  0  0  0  0  0
   18.2457   -5.0102   -2.6044 C   0  0  1  0  0  0  0  0  0  0  0  0
   19.5075   -4.4443   -2.5433 O   0  0  0  0  0  0  0  0  0  0  0  0
   17.2380   -3.9795   -2.0732 C   0  0  2  0  0  0  0  0  0  0  0  0
   16.1668   -4.6475   -1.4758 O   0  0  0  0  0  0  0  0  0  0  0  0
   16.7311   -3.3188   -3.1926 O   0  0  0  0  0  0  0  0  0  0  0  0
   15.8049   -4.1276   -3.8786 C   0  0  1  0  0  0  0  0  0  0  0  0
   15.5098   -3.4718   -5.2059 C   0  0  0  0  0  0  0  0  0  0  0  0
   16.5002   -2.5338   -5.4738 O   0  0  0  0  0  0  0  0  0  0  0  0
   17.0112   -2.6860   -6.6678 O   0  0  0  0  0  0  0  0  0  0  0  0
   18.0574   -1.8060   -6.8443 C   0  0  2  0  0  0  0  0  0  0  0  0
   19.2223   -2.5619   -7.4492 C   0  0  0  0  0  0  0  0  0  0  0  0
   18.5744   -1.0738   -5.2855 S   0  0  0  0  0  0  0  0  0  0  0  0
   19.1889    0.2880   -5.4885 O   0  0  0  0  0  0  0  0  0  0  0  0
  1  2  1  0
  2  3  1  0
  3  4  1  0
  4  5  1  0
  5  6  1  1
  6  7  1  0
  5  8  1  0
  8  9  1  6
  8 10  1  0
 10 11  1  6
 10 12  1  0
 12 13  1  0
 13 14  1  6
 14 15  1  0
 15 16  1  0
 16 17  1  0
 17 18  1  1
 17 19  1  0
 19 20  2  0
 13  4  1  0
M  RAD  1   3   2
M  END
>  <docking_score>  (2) 
-3.2480000000000002

$$$$

     RDKit          3D

 20 20  0  0  0  0  0  0  0  0999 V2000
   16.0402   -4.8945   -1.3203 O   0  0  0  0  0  0  0  0  0  0  0  0
   16.8286   -3.7913   -1.6094 C   0  0  0  0  0  0  0  0  0  0  0  0
   16.6063   -3.2895   -3.0332 C   0  0  0  0  0  3  0  0  0  0  0  0
   17.5897   -3.8574   -3.8888 N   0  0  0  0  0  0  0  0  0  0  0  0
   17.0873   -4.4763   -5.0751 C   0  0  2  0  0  0  0  0  0  0  0  0
   15.6986   -5.0033   -4.9723 C   0  0  0  0  0  0  0  0  0  0  0  0
   15.7606   -6.2820   -4.4214 O   0  0  0  0  0  0  0  0  0  0  0  0
   18.0930   -5.5259   -5.4966 C   0  0  1  0  0  0  0  0  0  0  0  0
   17.9554   -5.8794   -6.8280 O   0  0  0  0  0  0  0  0  0  0  0  0
   19.4691   -4.8658   -5.3216 C   0  0  2  0  0  0  0  0  0  0  0  0
   19.9408   -5.1181   -4.0315 O   0  0  0  0  0  0  0  0  0  0  0  0
   19.2549   -3.4902   -5.4136 O   0  0  0  0  0  0  0  0  0  0  0  0
   18.6727   -2.9908   -4.2329 C   0  0  1  0  0  0  0  0  0  0  0  0
   18.2223   -1.5749   -4.5004 C   0  0  0  0  0  0  0  0  0  0  0  0
   17.8334   -1.4708   -5.8310 O   0  0  0  0  0  0  0  0  0  0  0  0
   16.8671   -0.6051   -5.9942 O   0  0  0  0  0  0  0  0  0  0  0  0
   15.6479   -1.2390   -5.8857 C   0  0  2  0  0  0  0  0  0  0  0  0
   15.3506   -1.9336   -7.1985 C   0  0  0  0  0  0  0  0  0  0  0  0
   14.3278   -0.0734   -5.5223 S   0  0  0  0  0  0  0  0  0  0  0  0
   13.7374   -0.3114   -4.1556 O   0  0  0  0  0  0  0  0  0  0  0  0
  1  2  1  0
  2  3  1  0
  3  4  1  0
  4  5  1  0
  5  6  1  1
  6  7  1  0
  5  8  1  0
  8  9  1  6
  8 10  1  0
 10 11  1  1
 10 12  1  0
 12 13  1  0
 13 14  1  6
 14 15  1  0
 15 16  1  0
 16 17  1  0
 17 18  1  6
 17 19  1  0
 19 20  2  0
 13  4  1  0
M  RAD  1   3   2
M  END
>  <docking_score>  (3) 
-3.2250000000000001

$$$$
