
     RDKit          3D

 19 20  0  0  0  0  0  0  0  0999 V2000
   15.5184   -4.1005   -5.2351 C   0  0  0  0  0  0  0  0  0  0  0  0
   16.5007   -4.7044   -5.9840 O   0  0  0  0  0  0  0  0  0  0  0  0
   17.6947   -4.8630   -5.2850 C   0  0  0  0  0  3  0  0  0  0  0  0
   18.0914   -3.7025   -4.6552 O   0  0  0  0  0  0  0  0  0  0  0  0
   18.6971   -3.8941   -3.4437 C   0  0  2  0  0  0  0  0  0  0  0  0
   19.5876   -5.0918   -3.4709 C   0  0  0  0  0  0  0  0  0  0  0  0
   20.7376   -4.8426   -2.5142 C   0  0  0  0  0  2  0  0  0  0  0  0
   17.7497   -3.8806   -2.2797 C   0  0  1  0  0  0  0  0  0  0  0  0
   16.3832   -3.3711   -2.6963 C   0  0  1  0  0  0  0  0  0  0  0  0
   16.4278   -2.3117   -3.7295 C   0  0  0  0  0  3  0  0  0  0  0  0
   15.7331   -2.6324   -5.0080 C   0  0  1  0  0  0  0  0  0  0  0  0
   16.5134   -2.0283   -6.1844 C   0  0  0  0  0  0  0  0  0  0  0  0
   17.0654   -0.8443   -5.7293 O   0  0  0  0  0  0  0  0  0  0  0  0
   14.3779   -1.9567   -5.0219 C   0  0  0  0  0  0  0  0  0  0  0  0
   14.2955   -0.9877   -4.0060 O   0  0  0  0  0  0  0  0  0  0  0  0
   13.8288    0.2159   -4.4795 C   0  0  0  0  0  3  0  0  0  0  0  0
   13.6412    0.1275   -5.8458 O   0  0  0  0  0  0  0  0  0  0  0  0
   17.0008   -5.1990   -2.1937 C   0  0  0  0  0  0  0  0  0  0  0  0
   16.0479   -4.6420   -3.0758 O   0  0  0  0  0  0  0  0  0  0  0  0
  1  2  1  0
  2  3  1  0
  3  4  1  0
  4  5  1  0
  5  6  1  6
  6  7  1  0
  5  8  1  0
  8  9  1  0
  9 10  1  6
 10 11  1  0
 11 12  1  6
 12 13  1  0
 11 14  1  0
 14 15  1  0
 15 16  1  0
 16 17  1  0
  8 18  1  6
 18 19  1  0
 11  1  1  0
 19  9  1  0
M  RAD  4   3   2   7   3  10   2  16   2
M  END
>  <docking_score>  (1) 
-4.3529999999999998

$$$$

     RDKit          3D

 19 20  0  0  0  0  0  0  0  0999 V2000
   15.4745   -3.9088   -4.9352 C   0  0  0  0  0  0  0  0  0  0  0  0
   16.1289   -5.0902   -5.1928 O   0  0  0  0  0  0  0  0  0  0  0  0
   17.3024   -5.2315   -4.4562 C   0  0  0  0  0  3  0  0  0  0  0  0
   18.1023   -4.1109   -4.5249 O   0  0  0  0  0  0  0  0  0  0  0  0
   18.7753   -3.8237   -3.3691 C   0  0  2  0  0  0  0  0  0  0  0  0
   19.2604   -5.0695   -2.7052 C   0  0  0  0  0  0  0  0  0  0  0  0
   20.7258   -4.8790   -2.3644 C   0  0  0  0  0  2  0  0  0  0  0  0
   18.0329   -2.9041   -2.4439 C   0  0  1  0  0  0  0  0  0  0  0  0
   16.8365   -2.2828   -3.1389 C   0  0  1  0  0  0  0  0  0  0  0  0
   17.0587   -1.9973   -4.5745 C   0  0  0  0  0  3  0  0  0  0  0  0
   16.1413   -2.6966   -5.5175 C   0  0  1  0  0  0  0  0  0  0  0  0
   16.9066   -3.0805   -6.7921 C   0  0  0  0  0  0  0  0  0  0  0  0
   17.6827   -1.9876   -7.1343 O   0  0  0  0  0  0  0  0  0  0  0  0
   15.0568   -1.7373   -5.9612 C   0  0  0  0  0  0  0  0  0  0  0  0
   14.0103   -1.7018   -5.0223 O   0  0  0  0  0  0  0  0  0  0  0  0
   13.7524   -0.4231   -4.5875 C   0  0  0  0  0  3  0  0  0  0  0  0
   14.4078    0.4782   -5.4047 O   0  0  0  0  0  0  0  0  0  0  0  0
   16.9452   -3.6644   -1.7055 C   0  0  0  0  0  0  0  0  0  0  0  0
   16.0943   -3.3799   -2.7969 O   0  0  0  0  0  0  0  0  0  0  0  0
  1  2  1  0
  2  3  1  0
  3  4  1  0
  4  5  1  0
  5  6  1  1
  6  7  1  0
  5  8  1  0
  8  9  1  0
  9 10  1  6
 10 11  1  0
 11 12  1  6
 12 13  1  0
 11 14  1  0
 14 15  1  0
 15 16  1  0
 16 17  1  0
  8 18  1  1
 18 19  1  0
 11  1  1  0
 19  9  1  0
M  RAD  4   3   2   7   3  10   2  16   2
M  END
>  <docking_score>  (2) 
-4.2880000000000003

$$$$

     RDKit          3D

 19 20  0  0  0  0  0  0  0  0999 V2000
   16.9985   -3.1383   -5.4597 C   0  0  0  0  0  0  0  0  0  0  0  0
   17.8486   -2.0804   -5.6800 O   0  0  0  0  0  0  0  0  0  0  0  0
   18.6216   -1.7652   -4.5653 C   0  0  0  0  0  3  0  0  0  0  0  0
   17.8664   -1.6591   -3.4168 O   0  0  0  0  0  0  0  0  0  0  0  0
   18.4894   -2.1100   -2.2856 C   0  0  2  0  0  0  0  0  0  0  0  0
   19.9362   -1.7430   -2.2855 C   0  0  0  0  0  0  0  0  0  0  0  0
   20.1684   -0.7521   -1.1612 C   0  0  0  0  0  2  0  0  0  0  0  0
   18.2411   -3.5604   -1.9900 C   0  0  1  0  0  0  0  0  0  0  0  0
   17.1255   -4.1095   -2.8585 C   0  0  1  0  0  0  0  0  0  0  0  0
   16.0478   -3.1335   -3.1381 C   0  0  0  0  0  3  0  0  0  0  0  0
   15.8288   -2.8139   -4.5768 C   0  0  1  0  0  0  0  0  0  0  0  0
   15.4551   -1.3320   -4.7247 C   0  0  0  0  0  0  0  0  0  0  0  0
   14.6368   -1.0194   -3.6540 O   0  0  0  0  0  0  0  0  0  0  0  0
   14.6332   -3.5929   -5.0838 C   0  0  0  0  0  0  0  0  0  0  0  0
   15.0454   -4.6526   -5.9115 O   0  0  0  0  0  0  0  0  0  0  0  0
   14.1500   -4.8900   -6.9277 C   0  0  0  0  0  3  0  0  0  0  0  0
   14.7528   -5.6728   -7.8940 O   0  0  0  0  0  0  0  0  0  0  0  0
   19.0921   -4.4359   -2.8931 C   0  0  0  0  0  0  0  0  0  0  0  0
   18.0441   -4.3689   -3.8385 O   0  0  0  0  0  0  0  0  0  0  0  0
  1  2  1  0
  2  3  1  0
  3  4  1  0
  4  5  1  0
  5  6  1  6
  6  7  1  0
  5  8  1  0
  8  9  1  0
  9 10  1  6
 10 11  1  0
 11 12  1  1
 12 13  1  0
 11 14  1  0
 14 15  1  0
 15 16  1  0
 16 17  1  0
  8 18  1  6
 18 19  1  0
 11  1  1  0
 19  9  1  0
M  RAD  4   3   2   7   3  10   2  16   2
M  END
>  <docking_score>  (3) 
-4.1829999999999998

$$$$
