
     RDKit          3D

 11 11  0  0  0  0  0  0  0  0999 V2000
   15.7993   -6.3000   -5.1556 O   0  0  0  0  0  0  0  0  0  0  0  0
   16.5119   -5.9238   -4.0240 C   0  0  0  0  0  0  0  0  0  0  0  0
   16.9072   -4.4528   -4.1233 C   0  0  1  0  0  0  0  0  0  0  0  0
   15.7128   -3.6856   -3.9839 N   0  0  0  0  0  0  0  0  0  0  0  0
   15.8908   -2.3923   -3.3945 C   0  0  0  0  0  3  0  0  0  0  0  0
   16.6343   -2.4145   -2.0885 C   0  0  2  0  0  0  0  0  0  0  0  0
   17.7324   -1.5456   -2.2212 O   0  0  0  0  0  0  0  0  0  0  0  0
   17.2336   -3.7890   -1.8007 C   0  0  1  0  0  0  0  0  0  0  0  0
   16.1482   -4.6675   -1.6475 O   0  0  0  0  0  0  0  0  0  0  0  0
   17.9444   -4.1979   -3.0798 C   0  0  1  0  0  0  0  0  0  0  0  0
   18.6994   -5.3304   -2.7787 O   0  0  0  0  0  0  0  0  0  0  0  0
  1  2  1  0
  3  2  1  1
  3  4  1  0
  4  5  1  0
  5  6  1  0
  6  7  1  6
  6  8  1  0
  8  9  1  6
  8 10  1  0
 10 11  1  1
 10  3  1  0
M  RAD  1   5   2
M  END
>  <docking_score>  (1) 
-3.3730000000000002

$$$$

     RDKit          3D

 11 11  0  0  0  0  0  0  0  0999 V2000
   18.0082   -1.5284   -2.1884 O   0  0  0  0  0  0  0  0  0  0  0  0
   17.7282   -2.8718   -2.4042 C   0  0  0  0  0  0  0  0  0  0  0  0
   16.2620   -3.0417   -2.7932 C   0  0  1  0  0  0  0  0  0  0  0  0
   15.9118   -1.9270   -3.6116 N   0  0  0  0  0  0  0  0  0  0  0  0
   14.8951   -2.1887   -4.5859 C   0  0  0  0  0  3  0  0  0  0  0  0
   15.1737   -3.3853   -5.4516 C   0  0  2  0  0  0  0  0  0  0  0  0
   14.0667   -4.2457   -5.3392 O   0  0  0  0  0  0  0  0  0  0  0  0
   16.3683   -4.1880   -4.9419 C   0  0  1  0  0  0  0  0  0  0  0  0
   17.4877   -3.3482   -5.0638 O   0  0  0  0  0  0  0  0  0  0  0  0
   16.1269   -4.3742   -3.4534 C   0  0  1  0  0  0  0  0  0  0  0  0
   17.0677   -5.2993   -3.0035 O   0  0  0  0  0  0  0  0  0  0  0  0
  1  2  1  0
  3  2  1  6
  3  4  1  0
  4  5  1  0
  5  6  1  0
  6  7  1  1
  6  8  1  0
  8  9  1  1
  8 10  1  0
 10 11  1  1
 10  3  1  0
M  RAD  1   5   2
M  END
>  <docking_score>  (2) 
-3.2789999999999999

$$$$

     RDKit          3D

 11 11  0  0  0  0  0  0  0  0999 V2000
   14.3213   -2.4470   -5.0080 O   0  0  0  0  0  0  0  0  0  0  0  0
   14.9862   -3.6667   -5.0146 C   0  0  0  0  0  0  0  0  0  0  0  0
   16.3404   -3.5248   -4.3249 C   0  0  1  0  0  0  0  0  0  0  0  0
   16.1171   -3.6755   -2.9241 N   0  0  0  0  0  0  0  0  0  0  0  0
   17.2167   -4.2311   -2.1934 C   0  0  0  0  0  3  0  0  0  0  0  0
   17.7399   -5.5190   -2.7647 C   0  0  2  0  0  0  0  0  0  0  0  0
   19.1151   -5.3404   -3.0000 O   0  0  0  0  0  0  0  0  0  0  0  0
   17.1281   -5.8234   -4.1302 C   0  0  1  0  0  0  0  0  0  0  0  0
   15.7550   -6.0223   -3.9108 O   0  0  0  0  0  0  0  0  0  0  0  0
   17.2571   -4.5371   -4.9286 C   0  0  1  0  0  0  0  0  0  0  0  0
   16.9297   -4.8454   -6.2481 O   0  0  0  0  0  0  0  0  0  0  0  0
  1  2  1  0
  3  2  1  6
  3  4  1  0
  4  5  1  0
  5  6  1  0
  6  7  1  6
  6  8  1  0
  8  9  1  1
  8 10  1  0
 10 11  1  6
 10  3  1  0
M  RAD  1   5   2
M  END
>  <docking_score>  (3) 
-3.2589999999999999

$$$$
