
     RDKit          3D

 63 69  0  0  0  0  0  0  0  0999 V2000
   16.4810   -2.1690   -4.5514 C   0  0  0  0  0  0  0  0  0  0  0  0
   17.8486   -1.6630   -4.2632 C   0  0  2  0  0  0  0  0  0  0  0  0
   18.7855   -2.4684   -5.1220 C   0  0  0  0  0  0  0  0  0  0  0  0
   18.1379   -1.8943   -2.7950 C   0  0  2  0  0  0  0  0  0  0  0  0
   17.2379   -0.9856   -2.0029 C   0  0  0  0  0  0  0  0  0  0  0  0
   17.5817    0.4619   -2.1297 C   0  0  0  0  0  0  0  0  0  0  0  0
   16.9991    1.1342   -3.3217 C   0  0  1  0  0  0  0  0  0  0  0  0
   15.9194    2.1180   -3.0276 C   0  0  0  0  0  3  0  0  0  0  0  0
   14.6964    1.7366   -3.8511 C   0  0  0  0  0  0  0  0  0  0  0  0
   18.0042    1.6040   -4.3341 C   0  0  0  0  0  0  0  0  0  0  0  0
   17.4837    3.3090   -4.8065 S   0  0  0  0  0  0  0  0  0  0  0  0
   18.6783    4.6363   -4.3240 C   0  0  2  0  0  0  0  0  0  0  0  0
   19.7628    4.6249   -5.3508 C   0  0  0  0  0  0  0  0  0  0  0  0
   20.9889    4.6912   -4.7172 O   0  0  0  0  0  0  0  0  0  0  0  0
   19.1698    4.4595   -2.9295 C   0  0  0  0  0  0  0  0  0  0  0  0
   20.3805    3.6507   -2.9336 N   0  0  0  0  0  0  0  0  0  0  0  0
   20.3805    2.2541   -2.8344 C   0  0  0  0  0  0  0  0  0  0  0  0
   21.3767    1.5727   -2.2540 C   0  0  0  0  0  0  0  0  0  0  0  0
   21.3167    0.0732   -2.1795 C   0  0  0  0  0  0  0  0  0  0  0  0
   19.8436   -0.2748   -2.1784 C   0  0  0  0  0  0  0  0  0  0  0  0
   19.5932   -1.7447   -2.4472 C   0  0  2  0  0  0  0  0  0  0  0  0
   20.3700   -2.1059   -3.5332 O   0  0  0  0  0  0  0  0  0  0  0  0
   20.0408   -2.5069   -1.2705 C   0  0  2  0  0  0  0  0  0  0  0  0
   19.1928   -2.4310   -0.0560 O   0  0  0  0  0  0  0  0  0  0  0  0
   19.0190   -3.6219   -0.9444 C   0  0  2  0  0  0  0  0  0  0  0  0
   20.4701   -3.8894   -1.4250 C   0  0  2  0  0  0  0  0  0  0  0  0
   21.3663   -4.4591   -0.3594 C   0  0  0  0  0  0  0  0  0  0  0  0
   20.6302   -4.3400   -2.8582 C   0  0  0  0  0  0  0  0  0  0  0  0
   21.0665   -5.8059   -2.8127 C   0  0  0  0  0  0  0  0  0  0  0  0
   19.8065   -6.6147   -2.5529 C   0  0  2  0  0  0  0  0  0  0  0  0
   19.4400   -6.4986   -1.0946 C   0  0  0  0  0  0  0  0  0  0  0  0
   19.9627   -8.0562   -2.9862 C   0  0  0  0  0  0  0  0  0  0  0  0
   19.6678   -8.1858   -4.4691 C   0  0  0  0  0  0  0  0  0  0  0  0
   18.4229   -9.0698   -4.5892 C   0  0  0  0  0  3  0  0  0  0  0  0
   17.8166   -9.1253   -6.2955 S   0  0  0  0  0  0  0  0  0  0  0  0
   16.3425   -8.0523   -6.4271 C   0  0  2  0  0  0  0  0  0  0  0  0
   15.1684   -8.7773   -6.2460 O   0  0  0  0  0  0  0  0  0  0  0  0
   14.5878   -8.5339   -5.0092 C   0  0  0  0  0  0  0  0  0  0  0  0
   15.3765   -7.1868   -4.1113 S   0  0  0  0  0  0  0  0  0  0  0  0
   16.0394   -5.9265   -5.2294 C   0  0  0  0  0  0  0  0  0  0  0  0
   17.3974   -5.5356   -4.8468 N   0  0  0  0  0  0  0  0  0  0  0  0
   17.3373   -4.4064   -3.9301 C   0  0  0  0  0  0  0  0  0  0  0  0
   16.2926   -3.4822   -4.3764 C   0  0  0  0  0  0  0  0  0  0  0  0
   16.2987   -7.4236   -7.7983 C   0  0  0  0  0  3  0  0  0  0  0  0
   14.6016   -7.4189   -8.4563 S   0  0  0  0  0  0  0  0  0  0  0  0
   13.7438   -5.9670   -7.8154 C   0  0  2  0  0  0  0  0  0  0  0  0
   12.2379   -6.1989   -7.8001 C   0  0  0  0  0  0  0  0  0  0  0  0
   14.0742   -4.7900   -8.7400 C   0  0  0  0  0  3  0  0  0  0  0  0
   14.7725   -3.4819   -7.7287 S   0  0  0  0  0  0  0  0  0  0  0  0
   16.5894   -3.3633   -7.9460 C   0  0  0  0  0  0  0  0  0  0  0  0
   17.0934   -2.3579   -6.9145 C   0  0  1  0  0  0  0  0  0  0  0  0
   18.4045   -2.7777   -6.3565 C   0  0  0  0  0  0  0  0  0  0  0  0
   17.1333   -0.9880   -7.5096 C   0  0  0  0  0  0  0  0  0  0  0  0
   16.6788    0.0949   -6.5428 C   0  0  2  0  0  0  0  0  0  0  0  0
   15.4620   -0.2591   -5.8867 N   0  0  0  0  0  0  0  0  0  0  0  0
   15.3787   -1.3361   -4.9971 C   0  0  0  0  0  0  0  0  0  0  0  0
   14.1899   -1.6189   -4.5209 N   0  0  0  0  0  0  0  0  0  0  0  0
   16.6754    1.3901   -7.2599 C   0  0  0  0  0  0  0  0  0  0  0  0
   15.9288    2.4223   -6.6974 O   0  0  0  0  0  0  0  0  0  0  0  0
   16.4200    3.5340   -6.0331 C   0  0  0  0  0  0  0  0  0  0  0  0
   16.0054    5.2158   -6.3818 S   0  0  0  0  0  0  0  0  0  0  0  0
   17.0118    6.3950   -5.5466 C   0  0  0  0  0  0  0  0  0  0  0  0
   17.7458    7.2013   -6.0945 O   0  0  0  0  0  0  0  0  0  0  0  0
  1  2  1  0
  2  3  1  6
  2  4  1  0
  4  5  1  1
  5  6  1  0
  6  7  1  0
  7  8  1  1
  8  9  1  0
  7 10  1  0
 10 11  1  0
 11 12  1  0
 12 13  1  6
 13 14  1  0
 12 15  1  0
 15 16  1  0
 16 17  1  0
 17 18  2  3
 18 19  1  0
 19 20  1  0
 20 21  1  0
 21 22  1  6
 21 23  1  0
 23 24  1  1
 25 24  1  1
 25 26  1  0
 26 27  1  1
 26 28  1  0
 28 29  1  0
 29 30  1  0
 30 31  1  1
 30 32  1  0
 32 33  1  0
 33 34  1  0
 34 35  1  0
 35 36  1  0
 36 37  1  0
 37 38  1  0
 38 39  1  0
 39 40  1  0
 40 41  1  0
 41 42  1  0
 42 43  1  0
 36 44  1  6
 44 45  1  0
 45 46  1  0
 46 47  1  6
 46 48  1  0
 48 49  1  0
 49 50  1  0
 51 50  1  6
 51 52  1  0
 51 53  1  0
 54 53  1  6
 54 55  1  0
 55 56  1  0
 56 57  2  0
 54 58  1  0
 58 59  1  0
 59 60  1  0
 60 61  1  0
 61 62  1  0
 62 63  2  0
  1 43  2  3
 56  1  1  0
  3 52  2  3
 21  4  1  0
 11 60  2  3
 25 23  1  0
 26 23  1  0
M  RAD  4   8   2  34   2  44   2  48   2
M  END
>  <docking_score>  (1) 
96.174999999999997

$$$$
