
     RDKit          3D

 71 72  0  0  0  0  0  0  0  0999 V2000
   16.3504   -1.8109   -4.3332 C   0  0  0  0  0  0  0  0  0  0  0  0
   14.9802   -1.6605   -4.9570 C   0  0  2  0  0  0  0  0  0  0  0  0
   14.1252   -0.8070   -4.0227 C   0  0  0  0  0  0  0  0  0  0  0  0
   14.3239   -3.0318   -5.0201 C   0  0  0  0  0  0  0  0  0  0  0  0
   14.9615   -3.9275   -6.0473 C   0  0  0  0  0  0  0  0  0  0  0  0
   14.5048   -5.3363   -5.7829 C   0  0  0  0  0  0  0  0  0  0  0  0
   15.6263   -6.3377   -5.7761 C   0  0  1  0  0  0  0  0  0  0  0  0
   15.4774   -7.3492   -6.9139 C   0  0  0  0  0  0  0  0  0  0  0  0
   16.9259   -5.6306   -5.9602 C   0  0  0  0  0  3  0  0  0  0  0  0
   17.6565   -5.2616   -4.7323 C   0  0  1  0  0  0  0  0  0  0  0  0
   18.6652   -6.1879   -4.2261 C   0  0  0  0  0  0  0  0  0  0  0  0
   19.9911   -5.5924   -3.8861 C   0  0  2  0  0  0  0  0  0  0  0  0
   19.9515   -4.1678   -3.4466 C   0  0  0  0  0  0  0  0  0  0  0  0
   21.0706   -5.8719   -4.8905 C   0  0  0  0  0  3  0  0  0  0  0  0
   21.0921   -7.3008   -5.3320 C   0  0  0  0  0  0  0  0  0  0  0  0
   21.1980   -7.4168   -6.8582 C   0  0  0  0  0  0  0  0  0  0  0  0
   20.2409   -6.3607   -7.4049 C   0  0  2  0  0  0  0  0  0  0  0  0
   19.6335   -6.7886   -8.7042 C   0  0  0  0  0  2  0  0  0  0  0  0
   20.9969   -5.0704   -7.4989 C   0  0  0  0  0  0  0  0  0  0  0  0
   20.1080   -3.8584   -7.3499 C   0  0  1  0  0  0  0  0  0  0  0  0
   20.8391   -2.8590   -6.4881 C   0  0  0  0  0  0  0  0  0  0  0  0
   19.9613   -3.2515   -8.7388 C   0  0  0  0  0  2  0  0  0  0  0  0
   18.7772   -4.1883   -6.7450 C   0  0  0  0  0  0  0  0  0  0  0  0
   18.4088   -3.1767   -5.6769 C   0  0  2  0  0  0  0  0  0  0  0  0
   17.8468   -3.8179   -4.4787 C   0  0  1  0  0  0  0  0  0  0  0  0
   16.6059   -3.2309   -3.8846 C   0  0  1  0  0  0  0  0  0  0  0  0
   16.6399   -3.3221   -2.3686 C   0  0  0  0  0  0  0  0  0  0  0  0
   15.4764   -4.6050   -1.8551 S   0  0  0  0  0  0  0  0  0  0  0  0
   15.8698   -5.1420   -0.1548 C   0  0  0  0  0  3  0  0  0  0  0  0
   15.1639   -4.3334    0.8837 C   0  0  0  0  0  0  0  0  0  0  0  0
   15.6596   -2.9228    0.9030 C   0  0  0  0  0  3  0  0  0  0  0  0
   15.3885   -2.2398   -0.4165 C   0  0  0  0  0  2  0  0  0  0  0  0
   17.7338   -1.9752   -6.2155 C   0  0  0  0  0  0  0  0  0  0  0  0
   18.5479   -0.7182   -6.0629 C   0  0  0  0  0  0  0  0  0  0  0  0
   18.9206   -0.4590   -4.6299 C   0  0  0  0  0  0  0  0  0  0  0  0
   19.2731    1.0230   -4.4394 C   0  0  2  0  0  0  0  0  0  0  0  0
   18.6888    1.4664   -3.1061 C   0  0  0  0  0  0  0  0  0  0  0  0
   18.6492    1.8150   -5.5963 C   0  0  0  0  0  0  0  0  0  0  0  0
   19.3143    3.2101   -5.6619 C   0  0  2  0  0  0  0  0  0  0  0  0
   18.9286    3.8092   -6.9837 C   0  0  0  0  0  2  0  0  0  0  0  0
   20.8201    2.8757   -5.6335 C   0  0  0  0  0  0  0  0  0  0  0  0
   18.9053    3.9812   -4.4689 C   0  0  0  0  0  3  0  0  0  0  0  0
   18.7821    5.4165   -4.5077 C   0  0  2  0  0  0  0  0  0  0  0  0
   18.9290    6.2641   -3.3255 C   0  0  2  0  0  0  0  0  0  0  0  0
   18.0453    7.4981   -3.2820 C   0  0  0  0  0  0  0  0  0  0  0  0
   20.3727    6.6467   -3.0234 C   0  0  2  0  0  0  0  0  0  0  0  0
   20.5684    6.6145   -1.5342 C   0  0  0  0  0  0  0  0  0  0  0  0
   20.5768    8.0588   -3.5100 C   0  0  0  0  0  0  0  0  0  0  0  0
   19.8341    9.0815   -2.7052 C   0  0  0  0  0  0  0  0  0  0  0  0
   20.2683    9.0994   -1.2744 C   0  0  0  0  0  3  0  0  0  0  0  0
   20.3460   10.4764   -0.6907 C   0  0  0  0  0  0  0  0  0  0  0  0
   20.4151   10.5021    0.8028 C   0  0  0  0  0  3  0  0  0  0  0  0
   20.0727    9.1713    1.4148 C   0  0  0  0  0  2  0  0  0  0  0  0
   17.6589    5.8841   -5.3834 C   0  0  0  0  0  0  0  0  0  0  0  0
   16.3206    5.6454   -4.7154 C   0  0  0  0  0  0  0  0  0  0  0  0
   15.1871    6.2753   -5.4466 C   0  0  2  0  0  0  0  0  0  0  0  0
   15.4442    7.6540   -5.9494 C   0  0  0  0  0  0  0  0  0  0  0  0
   13.8357    6.0676   -4.8569 C   0  0  0  0  0  3  0  0  0  0  0  0
   13.8962    6.2534   -3.3661 C   0  0  0  0  0  3  0  0  0  0  0  0
   12.5515    6.3148   -2.7108 C   0  0  0  0  0  0  0  0  0  0  0  0
   12.6188    6.3069   -1.2013 C   0  0  0  0  0  3  0  0  0  0  0  0
   13.0600    4.9612   -0.6549 C   0  0  0  0  0  0  0  0  0  0  0  0
   11.9157    4.1588   -0.1328 C   0  0  0  0  0  3  0  0  0  0  0  0
   10.6393    5.1149    0.6451 S   0  0  0  0  0  0  0  0  0  0  0  0
    8.9679    4.7837    0.1611 C   0  0  2  0  0  0  0  0  0  0  0  0
    8.7503    4.1263   -1.1451 C   0  0  2  0  0  0  0  0  0  0  0  0
    7.4864    4.4995   -1.8198 C   0  0  0  0  0  0  0  0  0  0  0  0
    8.7602    2.6135   -0.9121 C   0  0  0  0  0  0  0  0  0  0  0  0
    9.2224    1.8884   -2.1520 C   0  0  0  0  0  2  0  0  0  0  0  0
    7.9947    5.8734    0.4799 C   0  0  0  0  0  0  0  0  0  0  0  0
    6.6490    5.5761   -0.1491 C   0  0  0  0  0  2  0  0  0  0  0  0
  1  2  1  0
  2  3  1  1
  2  4  1  0
  4  5  1  0
  5  6  1  0
  6  7  1  0
  7  8  1  6
  7  9  1  0
 10  9  1  6
 10 11  1  0
 11 12  1  0
 12 13  1  6
 12 14  1  0
 14 15  1  0
 15 16  1  0
 16 17  1  0
 17 18  1  6
 17 19  1  0
 19 20  1  0
 20 21  1  1
 20 22  1  0
 20 23  1  0
 23 24  1  0
 25 24  1  6
 25 26  1  0
 26 27  1  1
 27 28  1  0
 28 29  1  0
 29 30  1  0
 30 31  1  0
 31 32  1  0
 24 33  1  6
 33 34  1  0
 34 35  1  0
 35 36  1  0
 36 37  1  1
 36 38  1  0
 38 39  1  0
 39 40  1  6
 39 41  1  0
 39 42  1  0
 43 42  1  1
 43 44  1  0
 44 45  1  6
 44 46  1  0
 46 47  1  1
 46 48  1  0
 48 49  1  0
 49 50  1  0
 50 51  1  0
 51 52  1  0
 52 53  1  0
 43 54  1  0
 54 55  1  0
 55 56  1  0
 56 57  1  1
 56 58  1  0
 58 59  1  0
 59 60  1  0
 60 61  1  0
 61 62  1  0
 62 63  1  0
 63 64  1  0
 64 65  1  0
 65 66  1  0
 66 67  1  1
 66 68  1  0
 68 69  1  0
 65 70  1  6
 70 71  1  0
 26  1  1  0
 25 10  1  0
M  RAD  8   9   2  14   2  18   3  22   3  29   2  31   2  32   3  40   3
M  RAD  8  42   2  50   2  52   2  53   3  58   2  59   2  61   2  63   2
M  RAD  2  69   3  71   3
M  END
>  <docking_score>  (1) 
48.856999999999999

$$$$
