
     RDKit          3D

 31 33  0  0  0  0  0  0  0  0999 V2000
   19.8809   -8.4285   -7.5581 C   0  0  0  0  0  0  0  0  0  0  0  0
   19.0321   -8.5109   -6.3536 O   0  0  0  0  0  0  0  0  0  0  0  0
   19.5406   -7.7006   -5.2886 C   0  0  0  0  0  0  0  0  0  0  0  0
   20.4693   -7.8499   -4.4773 C   0  0  0  0  0  0  0  0  0  0  0  0
   20.6875   -6.9445   -3.4267 C   0  0  0  0  0  0  0  0  0  0  0  0
   19.8545   -5.9558   -3.2333 C   0  0  0  0  0  0  0  0  0  0  0  0
   18.8007   -5.7154   -4.0966 C   0  0  0  0  0  0  0  0  0  0  0  0
   18.6596   -6.6162   -5.2475 C   0  0  0  0  0  0  0  0  0  0  0  0
   17.6439   -6.2193   -6.0505 O   0  0  0  0  0  0  0  0  0  0  0  0
   16.7337   -5.2702   -6.2906 C   0  0  2  0  0  0  0  0  0  0  0  0
   15.9103   -6.2563   -7.0840 O   0  0  0  0  0  0  0  0  0  0  0  0
   14.6479   -6.1875   -6.6348 C   0  0  0  0  0  0  0  0  0  0  0  0
   13.9955   -5.0002   -7.2025 N   0  0  0  0  0  0  0  0  0  0  0  0
   14.8800   -4.5401   -8.2657 C   0  0  0  0  0  0  0  0  0  0  0  0
   17.0007   -4.1305   -6.9939 C   0  0  0  0  0  0  0  0  0  0  0  0
   15.8829   -3.5427   -7.8148 C   0  0  2  0  0  0  0  0  0  0  0  0
   15.3129   -2.3498   -7.2513 N   0  0  0  0  0  0  0  0  0  0  0  0
   16.2864   -1.5778   -6.5921 N   0  0  0  0  0  0  0  0  0  0  0  0
   16.3054   -1.3306   -5.3882 C   0  0  0  0  0  0  0  0  0  0  0  0
   15.4131   -1.7489   -4.2818 C   0  0  0  0  0  0  0  0  0  0  0  0
   14.5771   -2.8641   -4.7420 C   0  0  0  0  0  0  0  0  0  0  0  0
   14.4081   -0.5321   -4.0511 C   0  0  0  0  0  0  0  0  0  0  0  0
   16.1320   -2.0839   -3.0756 C   0  0  0  0  0  0  0  0  0  0  0  0
   17.6497   -2.4480   -3.2394 C   0  0  0  0  0  0  0  0  0  0  0  0
   18.2548   -1.5426   -2.0486 C   0  0  0  0  0  0  0  0  0  0  0  0
   19.7580   -2.0627   -1.9077 C   0  0  2  0  0  0  0  0  0  0  0  0
   20.5390   -0.9546   -1.3017 C   0  0  0  0  0  0  0  0  0  0  0  0
   20.6494    0.2470   -2.1466 C   0  0  0  0  0  0  0  0  0  0  0  0
   20.1684   -0.0661   -3.5626 C   0  0  0  0  0  0  0  0  0  0  0  0
   20.7847   -1.4027   -3.8803 C   0  0  0  0  0  0  0  0  0  0  0  0
   20.2775   -2.4388   -3.1182 O   0  0  0  0  0  0  0  0  0  0  0  0
  1  2  1  0
  2  3  1  0
  3  4  2  0
  4  5  1  0
  5  6  2  0
  6  7  1  0
  7  8  2  0
  8  9  1  0
 10  9  1  6
 10 11  1  0
 11 12  1  0
 12 13  1  0
 13 14  1  0
 10 15  1  0
 15 16  1  0
 16 17  1  1
 17 18  1  0
 18 19  2  3
 19 20  1  0
 20 21  1  0
 20 22  1  0
 20 23  1  0
 23 24  1  0
 24 25  1  0
 26 25  1  6
 26 27  1  0
 27 28  1  0
 28 29  1  0
 29 30  1  0
 30 31  1  0
  8  3  1  0
 16 14  1  0
 31 26  1  0
M  END
>  <docking_score>  (1) 
-4.6429999999999998

$$$$

     RDKit          3D

 31 33  0  0  0  0  0  0  0  0999 V2000
    2.3152    7.7919   11.9061 C   0  0  0  0  0  0  0  0  0  0  0  0
    3.6668    8.1409   12.3853 O   0  0  0  0  0  0  0  0  0  0  0  0
    3.6369    9.2315   13.3121 C   0  0  0  0  0  0  0  0  0  0  0  0
    3.2385    9.3393   14.4837 C   0  0  0  0  0  0  0  0  0  0  0  0
    3.2040   10.5783   15.1431 C   0  0  0  0  0  0  0  0  0  0  0  0
    3.5207   11.6703   14.4980 C   0  0  0  0  0  0  0  0  0  0  0  0
    3.9825   11.6349   13.1945 C   0  0  0  0  0  0  0  0  0  0  0  0
    4.1091   10.3144   12.5651 C   0  0  0  0  0  0  0  0  0  0  0  0
    4.6473   10.4187   11.3267 O   0  0  0  0  0  0  0  0  0  0  0  0
    4.4362   10.7888   10.0596 C   0  0  2  0  0  0  0  0  0  0  0  0
    2.9799   11.0370   10.3716 O   0  0  0  0  0  0  0  0  0  0  0  0
    2.6655   12.2557    9.9066 C   0  0  0  0  0  0  0  0  0  0  0  0
    2.4677   12.1835    8.4529 N   0  0  0  0  0  0  0  0  0  0  0  0
    2.3908   10.7622    8.1398 C   0  0  0  0  0  0  0  0  0  0  0  0
    4.6048    9.9537    8.9925 C   0  0  0  0  0  0  0  0  0  0  0  0
    3.7033   10.1557    7.8028 C   0  0  2  0  0  0  0  0  0  0  0  0
    4.3568   10.7591    6.6739 N   0  0  0  0  0  0  0  0  0  0  0  0
    3.5790   10.6417    5.5079 N   0  0  0  0  0  0  0  0  0  0  0  0
    4.0093   10.3758    4.3876 C   0  0  0  0  0  0  0  0  0  0  0  0
    5.3757   10.0701    3.9034 C   0  0  0  0  0  0  0  0  0  0  0  0
    5.2793    9.1783    2.7416 C   0  0  0  0  0  0  0  0  0  0  0  0
    6.0583    9.1988    5.0518 C   0  0  0  0  0  0  0  0  0  0  0  0
    6.1443   11.2548    3.6036 C   0  0  0  0  0  0  0  0  0  0  0  0
    5.3727   12.4408    2.9248 C   0  0  0  0  0  0  0  0  0  0  0  0
    6.3543   13.6511    3.3437 C   0  0  0  0  0  0  0  0  0  0  0  0
    7.7417   13.2660    2.6531 C   0  0  2  0  0  0  0  0  0  0  0  0
    8.7987   13.4637    3.6771 C   0  0  0  0  0  0  0  0  0  0  0  0
    8.9819   14.8621    4.1025 C   0  0  0  0  0  0  0  0  0  0  0  0
    8.2246   15.7964    3.1602 C   0  0  0  0  0  0  0  0  0  0  0  0
    8.5292   15.2673    1.7838 C   0  0  0  0  0  0  0  0  0  0  0  0
    7.9773   14.0240    1.5366 O   0  0  0  0  0  0  0  0  0  0  0  0
  1  2  1  0
  2  3  1  0
  3  4  2  0
  4  5  1  0
  5  6  2  0
  6  7  1  0
  7  8  2  0
  8  9  1  0
 10  9  1  1
 10 11  1  0
 11 12  1  0
 12 13  1  0
 13 14  1  0
 10 15  1  0
 15 16  1  0
 16 17  1  6
 17 18  1  0
 18 19  2  3
 19 20  1  0
 20 21  1  0
 20 22  1  0
 20 23  1  0
 23 24  1  0
 24 25  1  0
 26 25  1  1
 26 27  1  0
 27 28  1  0
 28 29  1  0
 29 30  1  0
 30 31  1  0
  8  3  1  0
 16 14  1  0
 31 26  1  0
M  END
>  <docking_score>  (2) 
-3.802

$$$$

     RDKit          3D

 31 33  0  0  0  0  0  0  0  0999 V2000
   16.2937   -5.3538   -7.2430 C   0  0  0  0  0  0  0  0  0  0  0  0
   17.7137   -5.7275   -7.3916 O   0  0  0  0  0  0  0  0  0  0  0  0
   17.9012   -7.1446   -7.3146 C   0  0  0  0  0  0  0  0  0  0  0  0
   18.0738   -8.0260   -8.1728 C   0  0  0  0  0  0  0  0  0  0  0  0
   18.1054   -9.3891   -7.8382 C   0  0  0  0  0  0  0  0  0  0  0  0
   17.8700   -9.7652   -6.6085 C   0  0  0  0  0  0  0  0  0  0  0  0
   17.6776   -8.8460   -5.5928 C   0  0  0  0  0  0  0  0  0  0  0  0
   17.7555   -7.4247   -5.9530 C   0  0  0  0  0  0  0  0  0  0  0  0
   17.6319   -6.6405   -4.8559 O   0  0  0  0  0  0  0  0  0  0  0  0
   18.2279   -5.7336   -4.0752 C   0  0  2  0  0  0  0  0  0  0  0  0
   16.8827   -5.3073   -3.5382 O   0  0  0  0  0  0  0  0  0  0  0  0
   16.9643   -5.2935   -2.1991 C   0  0  0  0  0  0  0  0  0  0  0  0
   17.6592   -4.0731   -1.7684 N   0  0  0  0  0  0  0  0  0  0  0  0
   17.7113   -3.2175   -2.9472 C   0  0  0  0  0  0  0  0  0  0  0  0
   18.9520   -4.6819   -4.5592 C   0  0  0  0  0  0  0  0  0  0  0  0
   18.9377   -3.4034   -3.7630 C   0  0  2  0  0  0  0  0  0  0  0  0
   20.1603   -3.1471   -3.0525 N   0  0  0  0  0  0  0  0  0  0  0  0
   21.2486   -3.0180   -3.9341 N   0  0  0  0  0  0  0  0  0  0  0  0
   21.3715   -2.1468   -4.7925 C   0  0  0  0  0  0  0  0  0  0  0  0
   20.5155   -0.9933   -5.1558 C   0  0  0  0  0  0  0  0  0  0  0  0
   21.2836   -0.0840   -6.0146 C   0  0  0  0  0  0  0  0  0  0  0  0
   20.2703   -0.1905   -3.7996 C   0  0  0  0  0  0  0  0  0  0  0  0
   19.2726   -1.3884   -5.7748 C   0  0  0  0  0  0  0  0  0  0  0  0
   18.0262   -0.4769   -5.4949 C   0  0  0  0  0  0  0  0  0  0  0  0
   16.8755   -1.4322   -6.1006 C   0  0  0  0  0  0  0  0  0  0  0  0
   15.5332   -0.6004   -5.8638 C   0  0  2  0  0  0  0  0  0  0  0  0
   15.3436   -0.5033   -4.3942 C   0  0  0  0  0  0  0  0  0  0  0  0
   15.0939   -1.7916   -3.7250 C   0  0  0  0  0  0  0  0  0  0  0  0
   14.8066   -2.8722   -4.7662 C   0  0  0  0  0  0  0  0  0  0  0  0
   13.8690   -2.2119   -5.7420 C   0  0  0  0  0  0  0  0  0  0  0  0
   14.4577   -1.1944   -6.4699 O   0  0  0  0  0  0  0  0  0  0  0  0
  1  2  1  0
  2  3  1  0
  3  4  2  0
  4  5  1  0
  5  6  2  0
  6  7  1  0
  7  8  2  0
  8  9  1  0
 10  9  1  6
 10 11  1  0
 11 12  1  0
 12 13  1  0
 13 14  1  0
 10 15  1  0
 15 16  1  0
 16 17  1  1
 17 18  1  0
 18 19  2  3
 19 20  1  0
 20 21  1  0
 20 22  1  0
 20 23  1  0
 23 24  1  0
 24 25  1  0
 26 25  1  1
 26 27  1  0
 27 28  1  0
 28 29  1  0
 29 30  1  0
 30 31  1  0
  8  3  1  0
 16 14  1  0
 31 26  1  0
M  END
>  <docking_score>  (3) 
-2.6389999999999998

$$$$
