
     RDKit          3D

 12 12  0  0  0  0  0  0  0  0999 V2000
   14.4371   -2.4563   -5.4005 O   0  0  0  0  0  0  0  0  0  0  0  0
   15.1921   -2.4251   -4.2323 C   0  0  0  0  0  0  0  0  0  0  0  0
   16.5633   -2.9975   -4.5246 C   0  0  1  0  0  0  0  0  0  0  0  0
   17.5914   -2.0950   -4.0309 N   0  0  0  0  0  0  0  0  0  0  0  0
   17.4756   -1.8875   -2.5972 C   0  0  2  0  0  0  0  0  0  0  0  0
   18.8043   -2.2850   -1.9789 C   0  0  0  0  0  0  0  0  0  0  0  0
   16.5069   -2.7403   -2.1125 O   0  0  0  0  0  0  0  0  0  0  0  0
   16.9176   -4.0452   -2.3562 C   0  0  1  0  0  0  0  0  0  0  0  0
   16.1260   -4.9192   -1.6112 O   0  0  0  0  0  0  0  0  0  0  0  0
   16.7519   -4.3200   -3.8470 C   0  0  1  0  0  0  0  0  0  0  0  0
   15.6975   -5.1985   -4.0855 O   0  0  0  0  0  0  0  0  0  0  0  0
   16.1279   -6.2839   -4.6548 O   0  0  0  0  0  0  0  0  0  0  0  0
  1  2  1  0
  3  2  1  1
  3  4  1  0
  4  5  1  0
  5  6  1  1
  5  7  1  0
  7  8  1  0
  8  9  1  1
  8 10  1  0
 10 11  1  1
 11 12  1  0
 10  3  1  0
M  END
>  <docking_score>  (1) 
-3.3849999999999998

$$$$

     RDKit          3D

 12 12  0  0  0  0  0  0  0  0999 V2000
   13.4618   -5.6400   -6.8462 O   0  0  0  0  0  0  0  0  0  0  0  0
   14.0726   -4.9473   -5.8057 C   0  0  0  0  0  0  0  0  0  0  0  0
   15.4822   -4.5854   -6.2246 C   0  0  1  0  0  0  0  0  0  0  0  0
   15.4955   -3.2595   -6.8224 N   0  0  0  0  0  0  0  0  0  0  0  0
   15.0184   -2.2500   -5.8923 C   0  0  2  0  0  0  0  0  0  0  0  0
   16.1171   -1.2104   -5.7581 C   0  0  0  0  0  0  0  0  0  0  0  0
   14.8402   -2.8442   -4.6612 O   0  0  0  0  0  0  0  0  0  0  0  0
   16.0713   -3.3222   -4.2289 C   0  0  1  0  0  0  0  0  0  0  0  0
   15.9862   -3.6417   -2.8738 O   0  0  0  0  0  0  0  0  0  0  0  0
   16.4070   -4.5649   -5.0464 C   0  0  1  0  0  0  0  0  0  0  0  0
   16.3138   -5.7198   -4.2731 O   0  0  0  0  0  0  0  0  0  0  0  0
   17.4443   -6.3595   -4.2703 O   0  0  0  0  0  0  0  0  0  0  0  0
  1  2  1  0
  3  2  1  1
  3  4  1  0
  4  5  1  0
  5  6  1  1
  5  7  1  0
  7  8  1  0
  8  9  1  1
  8 10  1  0
 10 11  1  1
 11 12  1  0
 10  3  1  0
M  END
>  <docking_score>  (2) 
-3.3130000000000002

$$$$

     RDKit          3D

 12 12  0  0  0  0  0  0  0  0999 V2000
   14.7922   -1.0250   -4.2055 O   0  0  0  0  0  0  0  0  0  0  0  0
   15.0355   -2.3889   -4.3318 C   0  0  0  0  0  0  0  0  0  0  0  0
   16.5025   -2.5935   -4.6470 C   0  0  1  0  0  0  0  0  0  0  0  0
   17.3112   -2.2327   -3.4933 N   0  0  0  0  0  0  0  0  0  0  0  0
   16.9734   -3.0383   -2.3319 C   0  0  2  0  0  0  0  0  0  0  0  0
   18.2501   -3.7221   -1.8751 C   0  0  0  0  0  0  0  0  0  0  0  0
   16.0834   -4.0148   -2.7254 O   0  0  0  0  0  0  0  0  0  0  0  0
   16.7097   -4.8149   -3.6733 C   0  0  1  0  0  0  0  0  0  0  0  0
   15.9611   -5.9777   -3.8552 O   0  0  0  0  0  0  0  0  0  0  0  0
   16.7892   -4.0264   -4.9762 C   0  0  1  0  0  0  0  0  0  0  0  0
   15.9167   -4.5405   -5.9328 O   0  0  0  0  0  0  0  0  0  0  0  0
   16.5550   -4.8203   -7.0290 O   0  0  0  0  0  0  0  0  0  0  0  0
  1  2  1  0
  3  2  1  1
  3  4  1  0
  4  5  1  0
  5  6  1  6
  5  7  1  0
  7  8  1  0
  8  9  1  6
  8 10  1  0
 10 11  1  6
 11 12  1  0
 10  3  1  0
M  END
>  <docking_score>  (3) 
-3.2759999999999998

$$$$
