
     RDKit          3D

 80 80  0  0  0  0  0  0  0  0999 V2000
   18.6190    9.3595   -0.3738 O   0  0  0  0  0  0  0  0  0  0  0  0
   18.6194   10.3373   -1.2391 O   0  0  0  0  0  0  0  0  0  0  0  0
   19.5389   10.1022   -2.2559 C   0  0  0  0  0  3  0  0  0  0  0  0
   19.6222    8.7232   -2.4520 O   0  0  0  0  0  0  0  0  0  0  0  0
   18.4769    8.1896   -3.0070 C   0  0  2  0  0  0  0  0  0  0  0  0
   17.5357    9.3410   -3.3377 C   0  0  0  0  0  0  0  0  0  0  0  0
   18.2695   10.5222   -3.4861 O   0  0  0  0  0  0  0  0  0  0  0  0
   17.7709    7.2705   -2.0459 C   0  0  0  0  0  3  0  0  0  0  0  0
   18.1914    5.8379   -2.2168 C   0  0  0  0  0  3  0  0  0  0  0  0
   17.2304    5.1147   -3.1366 C   0  0  0  0  0  3  0  0  0  0  0  0
   16.6598    3.8635   -2.4716 C   0  0  2  0  0  0  0  0  0  0  0  0
   17.7344    3.1935   -1.9095 O   0  0  0  0  0  0  0  0  0  0  0  0
   15.9591    3.0600   -3.5293 C   0  0  0  0  0  3  0  0  0  0  0  0
   14.6934    2.6532   -3.1835 O   0  0  0  0  0  0  0  0  0  0  0  0
   13.6883    3.4861   -3.6735 C   0  0  0  0  0  0  0  0  0  0  0  0
   12.6557    3.7721   -2.5769 C   0  0  0  0  0  0  0  0  0  0  0  0
   13.1294    4.8374   -1.8525 O   0  0  0  0  0  0  0  0  0  0  0  0
   12.4984    5.0495   -0.6476 C   0  0  2  0  0  0  0  0  0  0  0  0
   11.5126    6.0166   -0.8529 O   0  0  0  0  0  0  0  0  0  0  0  0
   11.9678    7.0673   -1.6176 C   0  0  2  0  0  0  0  0  0  0  0  0
   12.9025    6.7071   -2.5624 O   0  0  0  0  0  0  0  0  0  0  0  0
   12.4253    8.2122   -0.7570 C   0  0  0  0  0  3  0  0  0  0  0  0
   11.8156    8.1071    0.4813 O   0  0  0  0  0  0  0  0  0  0  0  0
   12.6421    8.1886    1.4770 O   0  0  0  0  0  0  0  0  0  0  0  0
   11.9607    8.6129    2.5994 C   0  0  0  0  0  3  0  0  0  0  0  0
   10.9389    9.6653    2.2254 C   0  0  2  0  0  0  0  0  0  0  0  0
    9.6849    9.3245    2.6767 O   0  0  0  0  0  0  0  0  0  0  0  0
   10.9778   10.0286    0.7776 C   0  0  0  0  0  2  0  0  0  0  0  0
   13.3961    5.5306    0.4457 C   0  0  0  0  0  3  0  0  0  0  0  0
   13.8848    4.4268    1.3543 C   0  0  0  0  0  3  0  0  0  0  0  0
   15.2748    4.3172    1.3431 O   0  0  0  0  0  0  0  0  0  0  0  0
   15.8311    4.9732    2.4539 C   0  0  0  0  0  3  0  0  0  0  0  0
   15.7832    6.4731    2.2727 C   0  0  0  0  0  3  0  0  0  0  0  0
   17.0896    7.1360    2.6726 C   0  0  0  0  0  3  0  0  0  0  0  0
   17.6014    7.7254    1.5089 O   0  0  0  0  0  0  0  0  0  0  0  0
   18.3689    8.7508    1.7976 O   0  0  0  0  0  0  0  0  0  0  0  0
   18.1061    9.7510    0.8659 C   0  0  1  0  0  0  0  0  0  0  0  0
   18.8229   11.0349    1.2405 C   0  0  0  0  0  3  0  0  0  0  0  0
   18.7274   11.1518    2.6322 O   0  0  0  0  0  0  0  0  0  0  0  0
   17.4171   10.9625    3.0683 C   0  0  0  0  0  3  0  0  0  0  0  0
   16.5407   12.0260    2.4748 C   0  0  0  0  0  3  0  0  0  0  0  0
   15.4506   11.5237    1.7827 O   0  0  0  0  0  0  0  0  0  0  0  0
   14.2583   11.8914    2.4129 C   0  0  0  0  0  3  0  0  0  0  0  0
   14.5200   12.5938    3.5872 O   0  0  0  0  0  0  0  0  0  0  0  0
   14.0729   13.8163    3.5419 O   0  0  0  0  0  0  0  0  0  0  0  0
   12.6740   13.8642    3.5051 C   0  0  0  0  0  3  0  0  0  0  0  0
   12.2461   14.9040    4.3130 O   0  0  0  0  0  0  0  0  0  0  0  0
   10.9767   15.3543    4.0027 C   0  0  0  0  0  3  0  0  0  0  0  0
   10.3961   14.5984    2.8126 C   0  0  0  0  0  3  0  0  0  0  0  0
   10.1062   15.4698    1.7722 O   0  0  0  0  0  0  0  0  0  0  0  0
    8.8389   16.0026    1.8509 C   0  0  0  0  0  3  0  0  0  0  0  0
    7.9810   15.3040    2.8858 C   0  0  2  0  0  0  0  0  0  0  0  0
    7.7582   14.0062    2.4878 O   0  0  0  0  0  0  0  0  0  0  0  0
    6.7214   16.0750    3.1465 C   0  0  0  0  0  3  0  0  0  0  0  0
    5.6493   15.1979    3.1282 O   0  0  0  0  0  0  0  0  0  0  0  0
    6.0514   13.8543    2.9817 C   0  0  0  0  0  3  0  0  0  0  0  0
    4.8920   13.0584    2.4124 C   0  0  2  0  0  0  0  0  0  0  0  0
    3.5854   13.7885    2.5483 C   0  0  0  0  0  3  0  0  0  0  0  0
    2.5859   12.8508    2.8389 O   0  0  0  0  0  0  0  0  0  0  0  0
    2.3545   12.0239    1.7275 C   0  0  0  0  0  2  0  0  0  0  0  0
    4.7853   11.8217    3.0318 O   0  0  0  0  0  0  0  0  0  0  0  0
    5.6568   10.9072    2.4725 C   0  0  0  0  0  3  0  0  0  0  0  0
    6.3631    9.7528    3.6580 S   0  0  0  0  0  0  0  0  0  0  0  0
    5.4194    9.6858    5.1823 C   0  0  0  0  0  0  0  0  0  0  0  0
    5.9045   10.7136    6.1756 C   0  0  0  0  0  3  0  0  0  0  0  0
    4.8984   11.6190    6.4337 O   0  0  0  0  0  0  0  0  0  0  0  0
    4.1911   11.2502    7.5575 C   0  0  0  0  0  0  0  0  0  0  0  0
    3.2038   12.2759    8.0317 C   0  0  0  0  0  3  0  0  0  0  0  0
    3.7208   12.9556    9.2795 C   0  0  0  0  0  3  0  0  0  0  0  0
    4.4188   12.0288   10.0801 O   0  0  0  0  0  0  0  0  0  0  0  0
    4.7514   12.6385   11.2947 C   0  0  0  0  0  3  0  0  0  0  0  0
    3.6598   13.3074   11.8090 O   0  0  0  0  0  0  0  0  0  0  0  0
    3.7272   14.6708   11.5621 C   0  0  0  0  0  3  0  0  0  0  0  0
    5.0663   15.0615   11.5542 O   0  0  0  0  0  0  0  0  0  0  0  0
    5.7257   14.4030   12.6083 C   0  0  0  0  0  3  0  0  0  0  0  0
    7.4361   14.0397   12.1218 S   0  0  0  0  0  0  0  0  0  0  0  0
    8.4609   14.5673   13.3922 O   0  0  0  0  0  0  0  0  0  0  0  0
    9.1631   13.5000   13.9001 C   0  0  0  0  0  3  0  0  0  0  0  0
    9.0772   13.5335   15.4068 C   0  0  0  0  0  3  0  0  0  0  0  0
    9.2583   14.9565   15.9102 C   0  0  0  0  0  2  0  0  0  0  0  0
  1  2  1  0
  2  3  1  0
  3  4  1  0
  4  5  1  0
  5  6  1  1
  6  7  1  0
  5  8  1  0
  8  9  1  0
  9 10  1  0
 10 11  1  0
 11 12  1  6
 11 13  1  0
 13 14  1  0
 14 15  1  0
 15 16  1  0
 16 17  1  0
 17 18  1  0
 18 19  1  6
 19 20  1  0
 20 21  1  1
 20 22  1  0
 22 23  1  0
 23 24  1  0
 24 25  1  0
 25 26  1  0
 26 27  1  0
 26 28  1  6
 18 29  1  0
 29 30  1  0
 30 31  1  0
 31 32  1  0
 32 33  1  0
 33 34  1  0
 34 35  1  0
 35 36  1  0
 36 37  1  0
 37 38  1  1
 38 39  1  0
 39 40  1  0
 40 41  1  0
 41 42  1  0
 42 43  1  0
 43 44  1  0
 44 45  1  0
 45 46  1  0
 46 47  1  0
 47 48  1  0
 48 49  1  0
 49 50  1  0
 50 51  1  0
 51 52  1  0
 52 53  1  6
 52 54  1  0
 54 55  1  0
 55 56  1  0
 57 56  1  1
 57 58  1  0
 58 59  1  0
 59 60  1  0
 57 61  1  0
 61 62  1  0
 62 63  1  0
 63 64  1  0
 64 65  1  0
 65 66  1  0
 66 67  1  0
 67 68  1  0
 68 69  1  0
 69 70  1  0
 70 71  1  0
 71 72  1  0
 72 73  1  0
 73 74  1  0
 74 75  1  0
 75 76  1  0
 76 77  1  0
 77 78  1  0
 78 79  1  0
 79 80  1  0
 37  1  1  0
M  RAD  8   3   2   8   2   9   2  10   2  13   2  22   2  25   2  28   3
M  RAD  8  29   2  30   2  32   2  33   2  34   2  38   2  40   2  41   2
M  RAD  8  43   2  46   2  48   2  49   2  51   2  54   2  56   2  58   2
M  RAD  8  60   3  62   2  65   2  68   2  69   2  71   2  73   2  75   2
M  RAD  3  78   2  79   2  80   3
M  END
>  <docking_score>  (1) 
84.698999999999998

$$$$
