
     RDKit          3D

 16 16  0  0  0  0  0  0  0  0999 V2000
   13.6570    0.5781   -4.3100 Cl  0  0  0  0  0  0  0  0  0  0  0  0
   14.1874   -0.3540   -5.6805 C   0  0  0  0  0  0  0  0  0  0  0  0
   15.2994   -1.0858   -5.6190 C   0  0  0  0  0  0  0  0  0  0  0  0
   15.6836   -1.8462   -6.8164 C   0  0  0  0  0  0  0  0  0  0  0  0
   15.8222   -3.1630   -6.7378 C   0  0  0  0  0  0  0  0  0  0  0  0
   15.6179   -3.8938   -5.5448 N   0  0  0  0  0  0  0  0  0  0  0  0
   16.3990   -3.6163   -4.4215 N   0  0  0  0  0  0  0  0  0  0  0  0
   16.1311   -4.0254   -3.2708 N   0  0  0  0  0  0  0  0  0  0  0  0
   17.0259   -3.6661   -2.1864 C   0  0  1  0  0  0  0  0  0  0  0  0
   18.2860   -4.4256   -2.3218 C   0  0  0  0  0  0  0  0  0  0  0  0
   19.5275   -3.6824   -2.3921 C   0  0  0  0  0  0  0  0  0  0  0  0
   19.5602   -2.3741   -2.3393 C   0  0  0  0  0  0  0  0  0  0  0  0
   18.3224   -1.6368   -2.2066 C   0  0  0  0  0  0  0  0  0  0  0  0
   17.1387   -2.2099   -2.1339 C   0  0  0  0  0  0  0  0  0  0  0  0
   15.7450   -1.1638   -1.9753 Cl  0  0  0  0  0  0  0  0  0  0  0  0
   16.2778   -4.0254   -8.1773 Cl  0  0  0  0  0  0  0  0  0  0  0  0
  1  2  1  0
  2  3  2  3
  3  4  1  0
  4  5  2  3
  5  6  1  0
  6  7  1  0
  7  8  2  3
  8  9  1  0
  9 10  1  6
 10 11  1  0
 11 12  2  0
 12 13  1  0
 13 14  2  0
 14 15  1  0
  5 16  1  0
 14  9  1  0
M  END
>  <docking_score>  (1) 
-4.633

$$$$

     RDKit          3D

 16 16  0  0  0  0  0  0  0  0999 V2000
    4.7983   12.3563    7.6939 Cl  0  0  0  0  0  0  0  0  0  0  0  0
    4.7322   11.9673    5.9990 C   0  0  0  0  0  0  0  0  0  0  0  0
    5.2674   10.8378    5.5367 C   0  0  0  0  0  0  0  0  0  0  0  0
    5.1726   10.5780    4.0934 C   0  0  0  0  0  0  0  0  0  0  0  0
    6.2690   10.6214    3.3481 C   0  0  0  0  0  0  0  0  0  0  0  0
    7.5506   10.9090    3.8712 N   0  0  0  0  0  0  0  0  0  0  0  0
    8.0891   12.1879    3.7176 N   0  0  0  0  0  0  0  0  0  0  0  0
    7.8057   13.1546    4.4581 N   0  0  0  0  0  0  0  0  0  0  0  0
    8.4357   14.4343    4.1915 C   0  0  1  0  0  0  0  0  0  0  0  0
    9.5641   14.2375    3.2583 C   0  0  0  0  0  0  0  0  0  0  0  0
    9.5695   14.9948    2.0233 C   0  0  0  0  0  0  0  0  0  0  0  0
    8.6135   15.8367    1.7182 C   0  0  0  0  0  0  0  0  0  0  0  0
    7.5116   16.0245    2.6368 C   0  0  0  0  0  0  0  0  0  0  0  0
    7.4060   15.3888    3.7856 C   0  0  0  0  0  0  0  0  0  0  0  0
    6.0050   15.7379    4.7742 Cl  0  0  0  0  0  0  0  0  0  0  0  0
    6.1137   10.3080    1.6448 Cl  0  0  0  0  0  0  0  0  0  0  0  0
  1  2  1  0
  2  3  2  3
  3  4  1  0
  4  5  2  3
  5  6  1  0
  6  7  1  0
  7  8  2  3
  8  9  1  0
  9 10  1  6
 10 11  1  0
 11 12  2  0
 12 13  1  0
 13 14  2  0
 14 15  1  0
  5 16  1  0
 14  9  1  0
M  END
>  <docking_score>  (2) 
-4.1900000000000004

$$$$

     RDKit          3D

 16 16  0  0  0  0  0  0  0  0999 V2000
   14.5791   -1.1874   -4.1627 Cl  0  0  0  0  0  0  0  0  0  0  0  0
   14.7343   -2.7531   -4.9064 C   0  0  0  0  0  0  0  0  0  0  0  0
   15.2090   -2.8760   -6.1455 C   0  0  0  0  0  0  0  0  0  0  0  0
   15.3109   -4.2304   -6.7065 C   0  0  0  0  0  0  0  0  0  0  0  0
   16.4992   -4.8129   -6.7963 C   0  0  0  0  0  0  0  0  0  0  0  0
   17.6990   -4.1947   -6.3753 N   0  0  0  0  0  0  0  0  0  0  0  0
   18.1592   -4.3938   -5.0724 N   0  0  0  0  0  0  0  0  0  0  0  0
   18.0633   -5.4797   -4.4600 N   0  0  0  0  0  0  0  0  0  0  0  0
   18.5825   -5.5556   -3.1071 C   0  0  1  0  0  0  0  0  0  0  0  0
   20.0560   -5.4535   -3.1436 C   0  0  0  0  0  0  0  0  0  0  0  0
   20.6879   -4.4079   -2.3652 C   0  0  0  0  0  0  0  0  0  0  0  0
   19.9961   -3.5637   -1.6410 C   0  0  0  0  0  0  0  0  0  0  0  0
   18.5534   -3.6696   -1.6099 C   0  0  0  0  0  0  0  0  0  0  0  0
   17.8765   -4.5807   -2.2782 C   0  0  0  0  0  0  0  0  0  0  0  0
   16.1334   -4.5630   -2.1252 Cl  0  0  0  0  0  0  0  0  0  0  0  0
   16.5765   -6.4158   -7.4658 Cl  0  0  0  0  0  0  0  0  0  0  0  0
  1  2  1  0
  2  3  2  3
  3  4  1  0
  4  5  2  3
  5  6  1  0
  6  7  1  0
  7  8  2  3
  8  9  1  0
  9 10  1  6
 10 11  1  0
 11 12  2  0
 12 13  1  0
 13 14  2  0
 14 15  1  0
  5 16  1  0
 14  9  1  0
M  END
>  <docking_score>  (3) 
-4.1749999999999998

$$$$
