
     RDKit          3D

  8  8  0  0  0  0  0  0  0  0999 V2000
   19.3644   11.0409   -1.7424 C   0  0  0  0  0  0  0  0  0  0  0  0
   20.5247   11.3320   -1.0246 O   0  0  0  0  0  0  0  0  0  0  0  0
   21.3822   10.2371   -1.0102 C   0  0  0  0  0  3  0  0  0  0  0  0
   21.0676    9.2656    0.0856 C   0  0  0  0  0  0  0  0  0  0  0  0
   20.0456    9.7297    1.0563 C   0  0  0  0  0  0  0  0  0  0  0  0
   18.7206   10.0758    0.4683 C   0  0  0  0  0  3  0  0  0  0  0  0
   18.6403    9.9354   -1.0169 C   0  0  2  0  0  0  0  0  0  0  0  0
   19.0971    8.5892   -1.5085 C   0  0  0  0  0  2  0  0  0  0  0  0
  1  2  1  0
  2  3  1  0
  3  4  1  0
  4  5  1  0
  5  6  1  0
  6  7  1  0
  7  8  1  1
  7  1  1  0
M  RAD  3   3   2   6   2   8   3
M  END
>  <docking_score>  (1) 
-3.4180000000000001

$$$$

     RDKit          3D

  8  8  0  0  0  0  0  0  0  0999 V2000
   14.5646   -0.4812   -5.7673 C   0  0  0  0  0  0  0  0  0  0  0  0
   13.9984   -1.0844   -4.6439 O   0  0  0  0  0  0  0  0  0  0  0  0
   14.9732   -1.3668   -3.6930 C   0  0  0  0  0  3  0  0  0  0  0  0
   15.6551   -2.6792   -3.9304 C   0  0  0  0  0  0  0  0  0  0  0  0
   15.0494   -3.5127   -4.9984 C   0  0  0  0  0  0  0  0  0  0  0  0
   14.9836   -2.8741   -6.3434 C   0  0  0  0  0  3  0  0  0  0  0  0
   15.5065   -1.4756   -6.3973 C   0  0  2  0  0  0  0  0  0  0  0  0
   16.8881   -1.3390   -5.8185 C   0  0  0  0  0  2  0  0  0  0  0  0
  1  2  1  0
  2  3  1  0
  3  4  1  0
  4  5  1  0
  5  6  1  0
  6  7  1  0
  7  8  1  1
  7  1  1  0
M  RAD  3   3   2   6   2   8   3
M  END
>  <docking_score>  (2) 
-3.2320000000000002

$$$$

     RDKit          3D

  8  8  0  0  0  0  0  0  0  0999 V2000
   16.6212   -2.9269   -4.8787 C   0  0  0  0  0  0  0  0  0  0  0  0
   16.5881   -1.7195   -4.1805 O   0  0  0  0  0  0  0  0  0  0  0  0
   15.3872   -1.5812   -3.4929 C   0  0  0  0  0  3  0  0  0  0  0  0
   14.2941   -1.0062   -4.3402 C   0  0  0  0  0  0  0  0  0  0  0  0
   14.7290   -0.5174   -5.6722 C   0  0  0  0  0  0  0  0  0  0  0  0
   15.3826   -1.5363   -6.5415 C   0  0  0  0  0  3  0  0  0  0  0  0
   15.5307   -2.8863   -5.9189 C   0  0  2  0  0  0  0  0  0  0  0  0
   14.2420   -3.4230   -5.3588 C   0  0  0  0  0  2  0  0  0  0  0  0
  1  2  1  0
  2  3  1  0
  3  4  1  0
  4  5  1  0
  5  6  1  0
  6  7  1  0
  7  8  1  1
  7  1  1  0
M  RAD  3   3   2   6   2   8   3
M  END
>  <docking_score>  (3) 
-3.1059999999999999

$$$$
