
     RDKit          3D

 32 35  0  0  0  0  0  0  0  0999 V2000
   18.2779   -8.2107   -7.6154 C   0  0  0  0  0  0  0  0  0  0  0  0
   17.4573   -9.0232   -6.8144 O   0  0  0  0  0  0  0  0  0  0  0  0
   17.3136   -8.4995   -5.5401 C   0  0  0  0  0  3  0  0  0  0  0  0
   16.1689   -7.7376   -5.3826 O   0  0  0  0  0  0  0  0  0  0  0  0
   16.3847   -6.7028   -4.4446 C   0  0  2  0  0  0  0  0  0  0  0  0
   15.0701   -5.9670   -4.2955 C   0  0  0  0  0  0  0  0  0  0  0  0
   14.1770   -6.2676   -5.4883 C   0  0  0  0  0  0  0  0  0  0  0  0
   17.3801   -5.7663   -5.0403 C   0  0  1  0  0  0  0  0  0  0  0  0
   17.3852   -4.4069   -4.4338 C   0  0  0  0  0  3  0  0  0  0  0  0
   18.7980   -4.1567   -3.9189 C   0  0  2  0  0  0  0  0  0  0  0  0
   19.6127   -5.0569   -4.7913 C   0  0  1  0  0  0  0  0  0  0  0  0
   19.4899   -4.8674   -6.2443 C   0  0  0  0  0  0  0  0  0  0  0  0
   19.5050   -3.9331   -7.0426 O   0  0  0  0  0  0  0  0  0  0  0  0
   20.8887   -5.2930   -4.3022 O   0  0  0  0  0  0  0  0  0  0  0  0
   21.3810   -4.2651   -3.6480 O   0  0  0  0  0  0  0  0  0  0  0  0
   21.0896   -4.4487   -2.3032 C   0  0  0  0  0  0  0  0  0  0  0  0
   20.9072   -3.2329   -1.6902 O   0  0  0  0  0  0  0  0  0  0  0  0
   19.7304   -3.1530   -0.9479 C   0  0  0  0  0  3  0  0  0  0  0  0
   18.5279   -3.5747   -1.7673 C   0  0  0  0  0  0  0  0  0  0  0  0
   18.8330   -4.6399   -2.6136 O   0  0  0  0  0  0  0  0  0  0  0  0
   18.7861   -6.3213   -4.9327 C   0  0  2  0  0  0  0  0  0  0  0  0
   19.3300   -6.3531   -6.3692 C   0  0  1  0  0  0  0  0  0  0  0  0
   18.2000   -6.7706   -7.2539 C   0  0  1  0  0  0  0  0  0  0  0  0
   17.9128   -5.9038   -8.2733 O   0  0  0  0  0  0  0  0  0  0  0  0
   16.6002   -5.4683   -8.1456 C   0  0  0  0  0  0  0  0  0  0  0  0
   16.5092   -4.0926   -8.3243 O   0  0  0  0  0  0  0  0  0  0  0  0
   15.2036   -3.7348   -7.9365 C   0  0  0  0  0  3  0  0  0  0  0  0
   15.3140   -2.4388   -7.2858 N   0  0  0  0  0  0  0  0  0  0  0  0
   16.5753   -1.9929   -7.4536 O   0  0  0  0  0  0  0  0  0  0  0  0
   14.9337   -2.5092   -5.9773 O   0  0  0  0  0  0  0  0  0  0  0  0
   15.2185   -1.4510   -5.1296 C   0  0  0  0  0  0  0  0  0  0  0  0
   14.6880   -1.4468   -3.9949 O   0  0  0  0  0  0  0  0  0  0  0  0
  1  2  1  0
  2  3  1  0
  3  4  1  0
  4  5  1  0
  5  6  1  6
  6  7  1  0
  5  8  1  0
  8  9  1  1
 10  9  1  6
 10 11  1  0
 11 12  1  0
 12 13  2  0
 11 14  1  1
 14 15  1  0
 15 16  1  0
 16 17  1  0
 17 18  1  0
 18 19  1  0
 19 20  1  0
 21  8  1  6
 21 22  1  0
 22 23  1  0
 23 24  1  6
 24 25  1  0
 25 26  1  0
 26 27  1  0
 27 28  1  0
 28 29  1  0
 28 30  1  0
 30 31  1  0
 31 32  2  0
 23  1  1  0
 20 10  1  0
 21 11  1  0
 22 12  1  6
M  RAD  4   3   2   9   2  18   2  27   2
M  END
>  <docking_score>  (1) 
-4.2619999999999996

$$$$

     RDKit          3D

 32 35  0  0  0  0  0  0  0  0999 V2000
   15.7786   -3.1600   -3.9556 C   0  0  0  0  0  0  0  0  0  0  0  0
   16.2270   -3.6059   -2.7005 O   0  0  0  0  0  0  0  0  0  0  0  0
   17.1739   -4.6090   -2.8270 C   0  0  0  0  0  3  0  0  0  0  0  0
   18.4775   -4.1471   -2.7728 O   0  0  0  0  0  0  0  0  0  0  0  0
   19.3234   -4.9488   -3.5722 C   0  0  2  0  0  0  0  0  0  0  0  0
   20.7269   -4.4071   -3.4028 C   0  0  0  0  0  0  0  0  0  0  0  0
   21.2081   -4.6666   -1.9844 C   0  0  0  0  0  0  0  0  0  0  0  0
   18.9123   -4.7474   -4.9911 C   0  0  1  0  0  0  0  0  0  0  0  0
   19.9497   -5.1215   -5.9910 C   0  0  0  0  0  3  0  0  0  0  0  0
   19.3288   -6.1753   -6.9007 C   0  0  2  0  0  0  0  0  0  0  0  0
   17.8697   -5.8730   -6.7787 C   0  0  1  0  0  0  0  0  0  0  0  0
   17.4420   -4.5057   -7.1098 C   0  0  0  0  0  0  0  0  0  0  0  0
   17.6265   -3.6895   -8.0098 O   0  0  0  0  0  0  0  0  0  0  0  0
   17.0536   -6.9028   -7.2224 O   0  0  0  0  0  0  0  0  0  0  0  0
   17.5811   -7.5762   -8.2199 O   0  0  0  0  0  0  0  0  0  0  0  0
   18.2547   -8.6628   -7.6791 C   0  0  0  0  0  0  0  0  0  0  0  0
   19.3432   -8.9770   -8.4561 O   0  0  0  0  0  0  0  0  0  0  0  0
   20.5276   -9.1034   -7.7327 C   0  0  0  0  0  3  0  0  0  0  0  0
   20.7730   -7.8938   -6.8542 C   0  0  0  0  0  0  0  0  0  0  0  0
   19.5857   -7.4086   -6.3077 O   0  0  0  0  0  0  0  0  0  0  0  0
   17.6589   -5.5353   -5.3147 C   0  0  2  0  0  0  0  0  0  0  0  0
   16.6462   -4.5058   -5.8389 C   0  0  1  0  0  0  0  0  0  0  0  0
   16.8154   -3.2698   -5.0157 C   0  0  1  0  0  0  0  0  0  0  0  0
   17.0773   -2.1314   -5.7286 O   0  0  0  0  0  0  0  0  0  0  0  0
   17.6043   -1.1702   -4.8757 C   0  0  0  0  0  0  0  0  0  0  0  0
   18.3328   -0.2196   -5.5817 O   0  0  0  0  0  0  0  0  0  0  0  0
   19.6179   -0.2071   -5.0061 C   0  0  0  0  0  3  0  0  0  0  0  0
   20.3013   -1.3868   -5.5126 N   0  0  0  0  0  0  0  0  0  0  0  0
   21.3774   -1.6136   -4.7327 O   0  0  0  0  0  0  0  0  0  0  0  0
   20.6096   -1.2494   -6.8347 O   0  0  0  0  0  0  0  0  0  0  0  0
   20.9767   -2.3674   -7.5660 C   0  0  0  0  0  0  0  0  0  0  0  0
   21.3822   -2.1962   -8.7387 O   0  0  0  0  0  0  0  0  0  0  0  0
  1  2  1  0
  2  3  1  0
  3  4  1  0
  4  5  1  0
  5  6  1  6
  6  7  1  0
  5  8  1  0
  8  9  1  6
 10  9  1  1
 10 11  1  0
 11 12  1  0
 12 13  2  0
 11 14  1  6
 14 15  1  0
 15 16  1  0
 16 17  1  0
 17 18  1  0
 18 19  1  0
 19 20  1  0
 21  8  1  6
 21 22  1  0
 22 23  1  0
 23 24  1  6
 24 25  1  0
 25 26  1  0
 26 27  1  0
 27 28  1  0
 28 29  1  0
 28 30  1  0
 30 31  1  0
 31 32  2  0
 23  1  1  0
 20 10  1  0
 21 11  1  0
 22 12  1  6
M  RAD  4   3   2   9   2  18   2  27   2
M  END
>  <docking_score>  (2) 
-3.2360000000000002

$$$$

     RDKit          3D

 32 35  0  0  0  0  0  0  0  0999 V2000
   15.6553   -1.0163   -4.2568 C   0  0  0  0  0  0  0  0  0  0  0  0
   15.5849   -1.1787   -2.8626 O   0  0  0  0  0  0  0  0  0  0  0  0
   16.0697   -2.4157   -2.4707 C   0  0  0  0  0  3  0  0  0  0  0  0
   17.3973   -2.3895   -2.0803 O   0  0  0  0  0  0  0  0  0  0  0  0
   18.0294   -3.6169   -2.3825 C   0  0  2  0  0  0  0  0  0  0  0  0
   19.4497   -3.5151   -1.8683 C   0  0  0  0  0  0  0  0  0  0  0  0
   19.6752   -2.1425   -1.2553 C   0  0  0  0  0  0  0  0  0  0  0  0
   18.0771   -3.7359   -3.8679 C   0  0  1  0  0  0  0  0  0  0  0  0
   19.0930   -4.6983   -4.3755 C   0  0  0  0  0  3  0  0  0  0  0  0
   18.3467   -5.7289   -5.2148 C   0  0  2  0  0  0  0  0  0  0  0  0
   17.1350   -4.9650   -5.6431 C   0  0  1  0  0  0  0  0  0  0  0  0
   17.3622   -3.6998   -6.3572 C   0  0  0  0  0  0  0  0  0  0  0  0
   18.0561   -3.2939   -7.2869 O   0  0  0  0  0  0  0  0  0  0  0  0
   16.1139   -5.7723   -6.1212 O   0  0  0  0  0  0  0  0  0  0  0  0
   16.5590   -6.8448   -6.7366 O   0  0  0  0  0  0  0  0  0  0  0  0
   16.6099   -7.8703   -5.8025 C   0  0  0  0  0  0  0  0  0  0  0  0
   17.6419   -8.7273   -6.0991 O   0  0  0  0  0  0  0  0  0  0  0  0
   18.4769   -8.9918   -5.0152 C   0  0  0  0  0  3  0  0  0  0  0  0
   18.9563   -7.7132   -4.3592 C   0  0  0  0  0  0  0  0  0  0  0  0
   17.9573   -6.7409   -4.3415 O   0  0  0  0  0  0  0  0  0  0  0  0
   16.7316   -4.1528   -4.4268 C   0  0  2  0  0  0  0  0  0  0  0  0
   16.3524   -3.0680   -5.4464 C   0  0  1  0  0  0  0  0  0  0  0  0
   16.7873   -1.7586   -4.8718 C   0  0  1  0  0  0  0  0  0  0  0  0
   17.6306   -1.0299   -5.6660 O   0  0  0  0  0  0  0  0  0  0  0  0
   18.6286   -0.4701   -4.8788 C   0  0  0  0  0  0  0  0  0  0  0  0
   19.6363   -1.3915   -4.6174 O   0  0  0  0  0  0  0  0  0  0  0  0
   20.8468   -0.7450   -4.9334 C   0  0  0  0  0  3  0  0  0  0  0  0
   20.4974    0.3723   -5.7964 N   0  0  0  0  0  0  0  0  0  0  0  0
   20.9386    0.0942   -7.0397 O   0  0  0  0  0  0  0  0  0  0  0  0
   20.9795    1.5487   -5.3009 O   0  0  0  0  0  0  0  0  0  0  0  0
   20.5386    2.7452   -5.8426 C   0  0  0  0  0  0  0  0  0  0  0  0
   21.3712    3.4597   -6.4470 O   0  0  0  0  0  0  0  0  0  0  0  0
  1  2  1  0
  2  3  1  0
  3  4  1  0
  4  5  1  0
  5  6  1  6
  6  7  1  0
  5  8  1  0
  8  9  1  1
 10  9  1  1
 10 11  1  0
 11 12  1  0
 12 13  2  0
 11 14  1  6
 14 15  1  0
 15 16  1  0
 16 17  1  0
 17 18  1  0
 18 19  1  0
 19 20  1  0
 21  8  1  1
 21 22  1  0
 22 23  1  0
 23 24  1  6
 24 25  1  0
 25 26  1  0
 26 27  1  0
 27 28  1  0
 28 29  1  0
 28 30  1  0
 30 31  1  0
 31 32  2  0
 23  1  1  0
 20 10  1  0
 21 11  1  0
 22 12  1  6
M  RAD  4   3   2   9   2  18   2  27   2
M  END
>  <docking_score>  (3) 
-3.2120000000000002

$$$$
