
     RDKit          3D

 47 49  0  0  0  0  0  0  0  0999 V2000
    4.8246   13.2200    5.4306 C   0  0  2  0  0  0  0  0  0  0  0  0
    5.3761   13.8310    6.5762 O   0  0  0  0  0  0  0  0  0  0  0  0
    4.3771   13.8792    7.5458 C   0  0  0  0  0  3  0  0  0  0  0  0
    5.0224   13.6515    8.7820 O   0  0  0  0  0  0  0  0  0  0  0  0
    5.4533   14.8715    9.3167 C   0  0  2  0  0  0  0  0  0  0  0  0
    6.9589   14.7939    9.5756 C   0  0  0  0  0  0  0  0  0  0  0  0
    4.7857   15.0407   10.5409 O   0  0  0  0  0  0  0  0  0  0  0  0
    5.4310   14.3049   11.5380 C   0  0  1  0  0  0  0  0  0  0  0  0
    5.9866   13.0139   10.9268 C   0  0  0  0  0  3  0  0  0  0  0  0
    6.1747   11.9812   12.0114 C   0  0  0  0  0  0  0  0  0  0  0  0
    4.9353   11.1492   12.1529 C   0  0  2  0  0  0  0  0  0  0  0  0
    4.0719   11.5642   13.2997 C   0  0  0  0  0  0  0  0  0  0  0  0
    3.5603   12.8370   13.1847 O   0  0  0  0  0  0  0  0  0  0  0  0
    2.2955   12.8649   12.6165 C   0  0  0  0  0  3  0  0  0  0  0  0
    2.3102   12.2435   11.2401 C   0  0  0  0  0  0  0  0  0  0  0  0
    5.1943    9.6744   12.1640 C   0  0  0  0  0  0  0  0  0  0  0  0
    4.3088    9.0757   11.2503 O   0  0  0  0  0  0  0  0  0  0  0  0
    4.7203    9.4007   10.0518 O   0  0  0  0  0  0  0  0  0  0  0  0
    3.7276    9.7925    9.2647 O   0  0  0  0  0  0  0  0  0  0  0  0
    4.3448   10.3610    8.1278 C   0  0  0  0  0  3  0  0  0  0  0  0
    4.6930    9.2128    7.2090 C   0  0  2  0  0  0  0  0  0  0  0  0
    5.4244    9.6929    6.0663 N   0  0  0  0  0  2  0  0  0  0  0  0
    3.5402    8.5268    6.8711 O   0  0  0  0  0  0  0  0  0  0  0  0
    3.2848    7.5356    7.6962 O   0  0  0  0  0  0  0  0  0  0  0  0
    2.7922    6.4796    6.9470 C   0  0  0  0  0  3  0  0  0  0  0  0
    3.1067    6.6656    5.4839 C   0  0  0  0  0  3  0  0  0  0  0  0
    2.3137    7.7214    5.0238 O   0  0  0  0  0  0  0  0  0  0  0  0
    2.7871    8.1682    3.8037 C   0  0  0  0  0  3  0  0  0  0  0  0
    3.1306    9.6295    3.8416 C   0  0  0  0  0  3  0  0  0  0  0  0
    2.5051   10.3697    4.9816 C   0  0  0  0  0  3  0  0  0  0  0  0
    3.4712   10.9410    5.7870 O   0  0  0  0  0  0  0  0  0  0  0  0
    4.7469   10.7110    5.3221 C   0  0  1  0  0  0  0  0  0  0  0  0
    5.5607   11.9479    5.1163 C   0  0  1  0  0  0  0  0  0  0  0  0
    6.0151   11.9700    3.8025 O   0  0  0  0  0  0  0  0  0  0  0  0
    4.9592   12.3671    2.9910 C   0  0  0  0  0  3  0  0  0  0  0  0
    4.6670   13.7072    3.0734 O   0  0  0  0  0  0  0  0  0  0  0  0
    5.0652   14.2185    4.2929 C   0  0  0  0  0  3  0  0  0  0  0  0
    6.5501   15.0359   11.9758 O   0  0  0  0  0  0  0  0  0  0  0  0
    6.5714   15.0865   13.2796 O   0  0  0  0  0  0  0  0  0  0  0  0
    7.7533   14.5660   13.7794 C   0  0  0  0  0  3  0  0  0  0  0  0
    8.6085   14.3311   12.6970 O   0  0  0  0  0  0  0  0  0  0  0  0
    9.8009   14.7646   12.9866 O   0  0  0  0  0  0  0  0  0  0  0  0
   10.6506   13.7595   13.4405 C   0  0  0  0  0  3  0  0  0  0  0  0
   12.0120   13.8548   12.8127 C   0  0  0  0  0  3  0  0  0  0  0  0
   11.8979   13.5581   11.4615 O   0  0  0  0  0  0  0  0  0  0  0  0
   11.8599   12.2549   11.3445 O   0  0  0  0  0  0  0  0  0  0  0  0
   12.6813   11.6130   12.2539 C   0  0  0  0  0  2  0  0  0  0  0  0
  1  2  1  0
  2  3  1  0
  3  4  1  0
  4  5  1  0
  5  6  1  1
  5  7  1  0
  7  8  1  0
  8  9  1  0
  9 10  1  0
 10 11  1  0
 11 12  1  1
 12 13  1  0
 13 14  1  0
 14 15  1  0
 11 16  1  0
 16 17  1  0
 17 18  1  0
 18 19  1  0
 19 20  1  0
 21 20  1  1
 21 22  1  0
 21 23  1  0
 23 24  1  0
 24 25  1  0
 25 26  1  0
 26 27  1  0
 27 28  1  0
 28 29  1  0
 29 30  1  0
 30 31  1  0
 32 31  1  1
 32 33  1  0
 33 34  1  6
 34 35  1  0
 35 36  1  0
 36 37  1  0
  8 38  1  6
 38 39  1  0
 39 40  1  0
 40 41  1  0
 41 42  1  0
 42 43  1  0
 43 44  1  0
 44 45  1  0
 45 46  1  0
 46 47  1  0
 33  1  1  0
  1 37  1  6
 32 22  1  0
M  RAD  8   3   2   9   2  14   2  20   2  22   3  25   2  26   2  28   2
M  RAD  8  29   2  30   2  35   2  37   2  40   2  43   2  44   2  47   3
M  CHG  1  22   1
M  END
>  <docking_score>  (1) 
-3.9710000000000001

$$$$
