
     RDKit          3D

 26 27  0  0  0  0  0  0  0  0999 V2000
   15.9443   -1.8064   -2.7689 C   0  0  0  0  0  0  0  0  0  0  0  0
   15.7076   -2.6088   -4.0474 C   0  0  1  0  0  0  0  0  0  0  0  0
   14.5038   -2.1439   -4.7419 C   0  0  0  0  0  0  0  0  0  0  0  0
   14.8854   -0.8214   -5.4126 C   0  0  2  0  0  0  0  0  0  0  0  0
   13.7483   -0.1218   -5.8068 O   0  0  0  0  0  0  0  0  0  0  0  0
   15.8037   -1.2147   -6.5294 C   0  0  2  0  0  0  0  0  0  0  0  0
   15.2091   -2.2174   -7.2879 O   0  0  0  0  0  0  0  0  0  0  0  0
   17.0979   -1.7232   -5.9620 C   0  0  1  0  0  0  0  0  0  0  0  0
   17.9412   -0.6395   -5.5871 O   0  0  0  0  0  0  0  0  0  0  0  0
   16.9680   -2.7503   -4.8692 C   0  0  1  0  0  0  0  0  0  0  0  0
   18.0860   -2.4156   -3.9309 N   0  0  0  0  0  0  0  0  0  0  0  0
   18.8887   -3.5821   -3.7069 C   0  0  0  0  0  3  0  0  0  0  0  0
   18.8264   -4.6899   -4.6168 C   0  0  0  0  0  0  0  0  0  0  0  0
   18.3929   -5.9889   -3.8512 C   0  0  1  0  0  0  0  0  0  0  0  0
   18.7137   -5.7968   -2.5464 O   0  0  0  0  0  0  0  0  0  0  0  0
   16.9876   -6.2513   -4.1110 C   0  0  0  0  0  3  0  0  0  0  0  0
   16.7534   -7.2530   -5.0286 O   0  0  0  0  0  0  0  0  0  0  0  0
   16.0362   -6.7763   -6.0168 O   0  0  0  0  0  0  0  0  0  0  0  0
   16.8889   -6.4070   -6.9557 O   0  0  0  0  0  0  0  0  0  0  0  0
   17.8235   -7.4292   -7.0836 C   0  0  2  0  0  0  0  0  0  0  0  0
   17.3754   -8.6318   -6.5745 O   0  0  0  0  0  0  0  0  0  0  0  0
   19.4450   -6.9984   -6.2791 P   0  0  0  0  0  0  0  0  0  0  0  0
   20.1441   -5.5816   -6.9404 O   0  0  0  0  0  0  0  0  0  0  0  0
   19.3712   -6.9913   -4.4947 C   0  0  1  0  0  0  0  0  0  0  0  0
   20.5712   -6.4834   -3.9082 O   0  0  0  0  0  0  0  0  0  0  0  0
   21.1838   -7.5094   -3.3844 O   0  0  0  0  0  0  0  0  0  0  0  0
  2  1  1  1
  2  3  1  0
  3  4  1  0
  4  5  1  6
  4  6  1  0
  6  7  1  1
  6  8  1  0
  8  9  1  1
  8 10  1  0
 10 11  1  1
 11 12  1  0
 12 13  1  0
 13 14  1  0
 14 15  1  1
 14 16  1  0
 16 17  1  0
 17 18  1  0
 18 19  1  0
 19 20  1  0
 20 21  1  1
 20 22  1  0
 22 23  1  0
 22 24  1  0
 24 25  1  1
 25 26  1  0
 10  2  1  0
 24 14  1  0
M  RAD  2  12   2  16   2
M  END
>  <docking_score>  (1) 
-4.6200000000000001

$$$$

     RDKit          3D

 26 27  0  0  0  0  0  0  0  0999 V2000
   18.2223   -5.7786   -8.7128 C   0  0  0  0  0  0  0  0  0  0  0  0
   17.7567   -6.1542   -7.3069 C   0  0  1  0  0  0  0  0  0  0  0  0
   17.3385   -7.5575   -7.2513 C   0  0  0  0  0  0  0  0  0  0  0  0
   18.6273   -8.3844   -7.2544 C   0  0  2  0  0  0  0  0  0  0  0  0
   18.3574   -9.7178   -7.5493 O   0  0  0  0  0  0  0  0  0  0  0  0
   19.2329   -8.1461   -5.9048 C   0  0  2  0  0  0  0  0  0  0  0  0
   18.2776   -8.3757   -4.9203 O   0  0  0  0  0  0  0  0  0  0  0  0
   19.7106   -6.7255   -5.8107 C   0  0  1  0  0  0  0  0  0  0  0  0
   20.9712   -6.5766   -6.4549 O   0  0  0  0  0  0  0  0  0  0  0  0
   18.7205   -5.6780   -6.2447 C   0  0  1  0  0  0  0  0  0  0  0  0
   19.5679   -4.6448   -6.9205 N   0  0  0  0  0  0  0  0  0  0  0  0
   19.2105   -3.3426   -6.4391 C   0  0  0  0  0  3  0  0  0  0  0  0
   18.0710   -3.1742   -5.5834 C   0  0  0  0  0  0  0  0  0  0  0  0
   18.0560   -1.7220   -4.9901 C   0  0  1  0  0  0  0  0  0  0  0  0
   19.3512   -1.3728   -4.7831 O   0  0  0  0  0  0  0  0  0  0  0  0
   17.3141   -0.8477   -5.8826 C   0  0  0  0  0  3  0  0  0  0  0  0
   16.0358   -0.5515   -5.4603 O   0  0  0  0  0  0  0  0  0  0  0  0
   15.1792   -0.9167   -6.3827 O   0  0  0  0  0  0  0  0  0  0  0  0
   14.7755   -2.1325   -6.0602 O   0  0  0  0  0  0  0  0  0  0  0  0
   14.5066   -2.1250   -4.6955 C   0  0  2  0  0  0  0  0  0  0  0  0
   14.3075   -0.8535   -4.1956 O   0  0  0  0  0  0  0  0  0  0  0  0
   15.8502   -2.9574   -3.7138 P   0  0  0  0  0  0  0  0  0  0  0  0
   16.0816   -4.5892   -4.1796 O   0  0  0  0  0  0  0  0  0  0  0  0
   17.3650   -2.0140   -3.6434 C   0  0  1  0  0  0  0  0  0  0  0  0
   18.4313   -2.7516   -3.0428 O   0  0  0  0  0  0  0  0  0  0  0  0
   18.1818   -2.7764   -1.7625 O   0  0  0  0  0  0  0  0  0  0  0  0
  2  1  1  6
  2  3  1  0
  3  4  1  0
  4  5  1  1
  4  6  1  0
  6  7  1  1
  6  8  1  0
  8  9  1  6
  8 10  1  0
 10 11  1  6
 11 12  1  0
 12 13  1  0
 13 14  1  0
 14 15  1  1
 14 16  1  0
 16 17  1  0
 17 18  1  0
 18 19  1  0
 19 20  1  0
 20 21  1  1
 20 22  1  0
 22 23  1  0
 22 24  1  0
 24 25  1  1
 25 26  1  0
 10  2  1  0
 24 14  1  0
M  RAD  2  12   2  16   2
M  END
>  <docking_score>  (2) 
-3.7839999999999998

$$$$
