
     RDKit          3D

 32 32  0  0  0  0  0  0  0  0999 V2000
    3.5559    7.0350    2.9850 C   0  0  0  0  0  0  0  0  0  0  0  0
    4.0084    6.6565    4.3381 C   0  0  2  0  0  0  0  0  0  0  0  0
    4.7916    5.3574    4.3158 C   0  0  0  0  0  0  0  0  0  0  0  0
    2.7616    6.4540    5.1976 C   0  0  0  0  0  0  0  0  0  0  0  0
    3.1919    6.4340    6.6571 C   0  0  0  0  0  0  0  0  0  0  0  0
    2.4046    7.4662    7.4326 C   0  0  0  0  0  0  0  0  0  0  0  0
    2.2604    7.0815    8.8743 C   0  0  1  0  0  0  0  0  0  0  0  0
    2.5808    5.6298    9.0860 C   0  0  0  0  0  0  0  0  0  0  0  0
    3.1258    7.9539    9.7535 C   0  0  0  0  0  3  0  0  0  0  0  0
    2.2929    8.8693   10.6260 C   0  0  0  0  0  0  0  0  0  0  0  0
    2.3306   10.2969   10.1302 C   0  0  0  0  0  0  0  0  0  0  0  0
    3.6363   10.9266   10.5486 C   0  0  2  0  0  0  0  0  0  0  0  0
    3.8040   10.9612   12.0531 C   0  0  0  0  0  0  0  0  0  0  0  0
    3.6619   12.3573   10.0551 C   0  0  0  0  0  3  0  0  0  0  0  0
    4.6985   12.5001    8.9656 C   0  0  0  0  0  0  0  0  0  0  0  0
    5.2290   13.9039    8.8704 C   0  0  2  0  0  0  0  0  0  0  0  0
    5.0152   14.5929   10.1910 C   0  0  0  0  0  0  0  0  0  0  0  0
    4.6079   14.6562    7.7257 C   0  0  0  0  0  0  0  0  0  0  0  0
    5.4910   15.8372    7.3786 C   0  0  0  0  0  0  0  0  0  0  0  0
    5.9540   15.6522    5.9382 C   0  0  0  0  0  0  0  0  0  0  0  0
    7.0447   14.6253    5.8716 C   0  0  0  0  0  0  0  0  0  0  0  0
    7.0763   13.8561    4.5861 C   0  0  0  0  0  0  0  0  0  0  0  0
    6.1152   14.2194    3.6793 O   0  0  0  0  0  0  0  0  0  0  0  0
    6.5883   14.5964    2.4465 C   0  0  0  0  0  0  0  0  0  0  0  0
    7.3828   13.5337    1.7407 C   0  0  2  0  0  0  0  0  0  0  0  0
    8.3805   14.1236    0.7751 C   0  0  0  0  0  0  0  0  0  0  0  0
    6.4930   12.5823    0.9603 C   0  0  0  0  0  0  0  0  0  0  0  0
    5.6175   11.9367    1.8323 O   0  0  0  0  0  0  0  0  0  0  0  0
    5.6240   10.6034    1.6351 N   0  0  0  0  0  0  0  0  0  0  0  0
    5.3813    9.9698    2.9119 C   0  0  0  0  0  0  0  0  0  0  0  0
    5.5284    8.4626    2.7872 C   0  0  0  0  0  0  0  0  0  0  0  0
    4.2649    7.8809    2.2549 C   0  0  0  0  0  0  0  0  0  0  0  0
  1  2  1  0
  2  3  1  6
  2  4  1  0
  4  5  1  0
  5  6  1  0
  6  7  1  0
  7  8  1  6
  7  9  1  0
  9 10  1  0
 10 11  1  0
 11 12  1  0
 12 13  1  1
 12 14  1  0
 14 15  1  0
 15 16  1  0
 16 17  1  1
 16 18  1  0
 18 19  1  0
 19 20  1  0
 20 21  1  0
 21 22  1  0
 22 23  1  0
 23 24  1  0
 24 25  1  0
 25 26  1  6
 25 27  1  0
 27 28  1  0
 28 29  1  0
 29 30  1  0
 30 31  1  0
 31 32  1  0
  1 32  2  3
M  RAD  2   9   2  14   2
M  END
>  <docking_score>  (1) 
-0.65600000000000003

$$$$
