
     RDKit          3D

 22 23  0  0  0  0  0  0  0  0999 V2000
   13.5372   -5.4170   -7.5437 C   0  0  0  0  0  0  0  0  0  0  0  0
   14.7493   -4.6883   -7.5424 O   0  0  0  0  0  0  0  0  0  0  0  0
   15.2457   -3.9970   -6.4697 C   0  0  0  0  0  0  0  0  0  0  0  0
   14.7641   -4.0615   -5.2522 C   0  0  0  0  0  0  0  0  0  0  0  0
   15.3474   -3.2991   -4.1772 C   0  0  0  0  0  0  0  0  0  0  0  0
   16.2206   -3.9152   -3.3252 C   0  0  0  0  0  0  0  0  0  0  0  0
   16.5394   -5.2711   -3.5016 N   0  0  0  0  0  0  0  0  0  0  0  0
   17.5923   -5.7355   -4.3382 C   0  0  0  0  0  0  0  0  0  0  0  0
   18.8438   -5.1596   -4.3045 C   0  0  0  0  0  0  0  0  0  0  0  0
   19.8436   -5.6210   -5.1175 C   0  0  0  0  0  0  0  0  0  0  0  0
   19.6190   -6.6627   -5.9787 C   0  0  0  0  0  0  0  0  0  0  0  0
   21.0285   -7.2744   -7.0894 Br  0  0  0  0  0  0  0  0  0  0  0  0
   18.3874   -7.2619   -6.0412 C   0  0  0  0  0  0  0  0  0  0  0  0
   17.3712   -6.7832   -5.2060 C   0  0  0  0  0  0  0  0  0  0  0  0
   16.1337   -7.3263   -5.2152 F   0  0  0  0  0  0  0  0  0  0  0  0
   16.7664   -3.2139   -2.3244 N   0  0  0  0  0  0  0  0  0  0  0  0
   16.4710   -1.8970   -2.1349 C   0  0  0  0  0  0  0  0  0  0  0  0
   15.5943   -1.2778   -2.9900 C   0  0  0  0  0  0  0  0  0  0  0  0
   15.0067   -1.9643   -4.0378 C   0  0  0  0  0  0  0  0  0  0  0  0
   14.0736   -1.3456   -4.9653 C   0  0  0  0  0  0  0  0  0  0  0  0
   14.4326   -0.3949   -5.7856 C   0  0  0  0  0  0  0  0  0  0  0  0
   15.6904    0.0969   -5.8485 F   0  0  0  0  0  0  0  0  0  0  0  0
  1  2  1  0
  2  3  1  0
  3  4  2  3
  4  5  1  0
  5  6  2  0
  6  7  1  0
  7  8  1  0
  8  9  2  0
  9 10  1  0
 10 11  2  0
 11 12  1  0
 11 13  1  0
 13 14  2  0
 14 15  1  0
  6 16  1  0
 16 17  2  0
 17 18  1  0
 18 19  2  0
 19 20  1  0
 20 21  2  3
 21 22  1  0
 19  5  1  0
 14  8  1  0
M  END
>  <docking_score>  (1) 
-4.8499999999999996

$$$$

     RDKit          3D

 22 23  0  0  0  0  0  0  0  0999 V2000
   15.6204   -2.0938   -7.5044 C   0  0  0  0  0  0  0  0  0  0  0  0
   15.2637   -1.7555   -6.1783 O   0  0  0  0  0  0  0  0  0  0  0  0
   16.1387   -1.6794   -5.1277 C   0  0  0  0  0  0  0  0  0  0  0  0
   17.2930   -2.2982   -5.0710 C   0  0  0  0  0  0  0  0  0  0  0  0
   18.1566   -2.1640   -3.9252 C   0  0  0  0  0  0  0  0  0  0  0  0
   18.0041   -3.0259   -2.8754 C   0  0  0  0  0  0  0  0  0  0  0  0
   17.0182   -4.0244   -2.9207 N   0  0  0  0  0  0  0  0  0  0  0  0
   17.1396   -5.2246   -3.6749 C   0  0  0  0  0  0  0  0  0  0  0  0
   18.2830   -5.9923   -3.6244 C   0  0  0  0  0  0  0  0  0  0  0  0
   18.3802   -7.1439   -4.3578 C   0  0  0  0  0  0  0  0  0  0  0  0
   17.3438   -7.5543   -5.1546 C   0  0  0  0  0  0  0  0  0  0  0  0
   17.5152   -9.1551   -6.1557 Br  0  0  0  0  0  0  0  0  0  0  0  0
   16.1900   -6.8178   -5.2313 C   0  0  0  0  0  0  0  0  0  0  0  0
   16.0998   -5.6416   -4.4778 C   0  0  0  0  0  0  0  0  0  0  0  0
   14.9926   -4.8672   -4.5055 F   0  0  0  0  0  0  0  0  0  0  0  0
   18.8023   -2.9076   -1.8077 N   0  0  0  0  0  0  0  0  0  0  0  0
   19.7656   -1.9457   -1.7428 C   0  0  0  0  0  0  0  0  0  0  0  0
   19.9194   -1.0801   -2.7964 C   0  0  0  0  0  0  0  0  0  0  0  0
   19.1163   -1.1660   -3.9200 C   0  0  0  0  0  0  0  0  0  0  0  0
   19.2468   -0.2689   -5.0567 C   0  0  0  0  0  0  0  0  0  0  0  0
   20.1972   -0.3995   -5.9428 C   0  0  0  0  0  0  0  0  0  0  0  0
   21.1376   -1.3693   -5.8867 F   0  0  0  0  0  0  0  0  0  0  0  0
  1  2  1  0
  2  3  1  0
  3  4  2  3
  4  5  1  0
  5  6  2  0
  6  7  1  0
  7  8  1  0
  8  9  2  0
  9 10  1  0
 10 11  2  0
 11 12  1  0
 11 13  1  0
 13 14  2  0
 14 15  1  0
  6 16  1  0
 16 17  2  0
 17 18  1  0
 18 19  2  0
 19 20  1  0
 20 21  2  3
 21 22  1  0
 19  5  1  0
 14  8  1  0
M  END
>  <docking_score>  (2) 
-4.3339999999999996

$$$$

     RDKit          3D

 22 23  0  0  0  0  0  0  0  0999 V2000
   21.3326   -4.1481   -6.3869 C   0  0  0  0  0  0  0  0  0  0  0  0
   20.9219   -2.8107   -6.1798 O   0  0  0  0  0  0  0  0  0  0  0  0
   19.8039   -2.4341   -5.4846 C   0  0  0  0  0  0  0  0  0  0  0  0
   19.2633   -3.1238   -4.5096 C   0  0  0  0  0  0  0  0  0  0  0  0
   18.0833   -2.6548   -3.8281 C   0  0  0  0  0  0  0  0  0  0  0  0
   16.8549   -2.9543   -4.3469 C   0  0  0  0  0  0  0  0  0  0  0  0
   16.7527   -3.7084   -5.5268 N   0  0  0  0  0  0  0  0  0  0  0  0
   16.7805   -5.1303   -5.5636 C   0  0  0  0  0  0  0  0  0  0  0  0
   16.0278   -5.8864   -4.6913 C   0  0  0  0  0  0  0  0  0  0  0  0
   16.0684   -7.2536   -4.7428 C   0  0  0  0  0  0  0  0  0  0  0  0
   16.8570   -7.8950   -5.6616 C   0  0  0  0  0  0  0  0  0  0  0  0
   16.8871   -9.7901   -5.7028 Br  0  0  0  0  0  0  0  0  0  0  0  0
   17.6201   -7.1777   -6.5463 C   0  0  0  0  0  0  0  0  0  0  0  0
   17.5721   -5.7801   -6.4860 C   0  0  0  0  0  0  0  0  0  0  0  0
   18.2980   -5.0106   -7.3272 F   0  0  0  0  0  0  0  0  0  0  0  0
   15.7543   -2.5222   -3.7198 N   0  0  0  0  0  0  0  0  0  0  0  0
   15.8304   -1.7889   -2.5735 C   0  0  0  0  0  0  0  0  0  0  0  0
   17.0635   -1.4878   -2.0520 C   0  0  0  0  0  0  0  0  0  0  0  0
   18.2273   -1.9140   -2.6672 C   0  0  0  0  0  0  0  0  0  0  0  0
   19.5521   -1.6164   -2.1475 C   0  0  0  0  0  0  0  0  0  0  0  0
   20.1094   -2.3314   -1.2074 C   0  0  0  0  0  0  0  0  0  0  0  0
   19.5136   -3.4023   -0.6362 F   0  0  0  0  0  0  0  0  0  0  0  0
  1  2  1  0
  2  3  1  0
  3  4  2  3
  4  5  1  0
  5  6  2  0
  6  7  1  0
  7  8  1  0
  8  9  2  0
  9 10  1  0
 10 11  2  0
 11 12  1  0
 11 13  1  0
 13 14  2  0
 14 15  1  0
  6 16  1  0
 16 17  2  0
 17 18  1  0
 18 19  2  0
 19 20  1  0
 20 21  2  3
 21 22  1  0
 19  5  1  0
 14  8  1  0
M  END
>  <docking_score>  (3) 
-4.1079999999999997

$$$$
