
     RDKit          3D

 23 24  0  0  0  0  0  0  0  0999 V2000
   14.2241   -5.4708   -5.9216 C   0  0  0  0  0  0  0  0  0  0  0  0
   15.5022   -4.7743   -6.4056 C   0  0  1  0  0  0  0  0  0  0  0  0
   15.0682   -3.9209   -7.5954 C   0  0  0  0  0  0  0  0  0  0  0  0
   15.5869   -2.4986   -7.4771 C   0  0  2  0  0  0  0  0  0  0  0  0
   16.9948   -2.5198   -7.4605 O   0  0  0  0  0  0  0  0  0  0  0  0
   15.0742   -1.7878   -6.2509 C   0  0  2  0  0  0  0  0  0  0  0  0
   15.9456   -0.7733   -5.8713 O   0  0  0  0  0  0  0  0  0  0  0  0
   14.9923   -2.7741   -5.1088 C   0  0  1  0  0  0  0  0  0  0  0  0
   13.7262   -3.3516   -5.1472 O   0  0  0  0  0  0  0  0  0  0  0  0
   16.0515   -3.8349   -5.3650 C   0  0  1  0  0  0  0  0  0  0  0  0
   16.5965   -4.4096   -4.2224 N   0  0  0  0  0  0  0  0  0  0  0  0
   16.2523   -3.9146   -2.9689 C   0  0  0  0  0  3  0  0  0  0  0  0
   17.3153   -3.0440   -2.3146 C   0  0  2  0  0  0  0  0  0  0  0  0
   18.1409   -2.3375   -3.3139 C   0  0  0  0  0  0  0  0  0  0  0  0
   18.3686   -1.1670   -3.3899 O   0  0  0  0  0  0  0  0  0  0  0  0
   18.1129   -3.9389   -1.5900 O   0  0  0  0  0  0  0  0  0  0  0  0
   19.0043   -4.4878   -2.5379 C   0  0  1  0  0  0  0  0  0  0  0  0
   20.1840   -4.7431   -1.8357 O   0  0  0  0  0  0  0  0  0  0  0  0
   18.3777   -5.6879   -3.1535 C   0  0  2  0  0  0  0  0  0  0  0  0
   19.4273   -6.5487   -3.5399 O   0  0  0  0  0  0  0  0  0  0  0  0
   17.5153   -5.4647   -4.3312 C   0  0  1  0  0  0  0  0  0  0  0  0
   16.8721   -6.6646   -4.6371 O   0  0  0  0  0  0  0  0  0  0  0  0
   17.5259   -7.2118   -5.6514 O   0  0  0  0  0  0  0  0  0  0  0  0
  2  1  1  1
  2  3  1  0
  3  4  1  0
  4  5  1  1
  4  6  1  0
  6  7  1  1
  6  8  1  0
  8  9  1  6
  8 10  1  0
 10 11  1  1
 11 12  1  0
 12 13  1  0
 13 14  1  6
 14 15  2  0
 13 16  1  0
 16 17  1  0
 17 18  1  1
 17 19  1  0
 19 20  1  6
 19 21  1  0
 21 22  1  1
 22 23  1  0
 10  2  1  0
 21 11  1  0
M  RAD  1  12   2
M  END
>  <docking_score>  (1) 
-5.1529999999999996

$$$$

     RDKit          3D

 23 24  0  0  0  0  0  0  0  0999 V2000
   14.3434   -3.0305   -5.1132 C   0  0  0  0  0  0  0  0  0  0  0  0
   15.6185   -3.0033   -5.9653 C   0  0  1  0  0  0  0  0  0  0  0  0
   15.8994   -1.5241   -6.2203 C   0  0  0  0  0  0  0  0  0  0  0  0
   17.3457   -1.1733   -5.9181 C   0  0  2  0  0  0  0  0  0  0  0  0
   18.1887   -1.9181   -6.7653 O   0  0  0  0  0  0  0  0  0  0  0  0
   17.7210   -1.4224   -4.4798 C   0  0  2  0  0  0  0  0  0  0  0  0
   19.0892   -1.6371   -4.3597 O   0  0  0  0  0  0  0  0  0  0  0  0
   17.0163   -2.6687   -3.9963 C   0  0  1  0  0  0  0  0  0  0  0  0
   15.7869   -2.2762   -3.4743 O   0  0  0  0  0  0  0  0  0  0  0  0
   16.8012   -3.5545   -5.2137 C   0  0  1  0  0  0  0  0  0  0  0  0
   16.8020   -4.9203   -4.9547 N   0  0  0  0  0  0  0  0  0  0  0  0
   16.8966   -5.3746   -3.6433 C   0  0  0  0  0  3  0  0  0  0  0  0
   18.2681   -5.9044   -3.2507 C   0  0  2  0  0  0  0  0  0  0  0  0
   19.3511   -5.2430   -4.0050 C   0  0  0  0  0  0  0  0  0  0  0  0
   20.2592   -4.5940   -3.5784 O   0  0  0  0  0  0  0  0  0  0  0  0
   18.2303   -7.2667   -3.5743 O   0  0  0  0  0  0  0  0  0  0  0  0
   18.4955   -7.3231   -4.9602 C   0  0  1  0  0  0  0  0  0  0  0  0
   19.1754   -8.5263   -5.1607 O   0  0  0  0  0  0  0  0  0  0  0  0
   17.2129   -7.2049   -5.7038 C   0  0  2  0  0  0  0  0  0  0  0  0
   17.3788   -7.8940   -6.9242 O   0  0  0  0  0  0  0  0  0  0  0  0
   16.7398   -5.8405   -6.0123 C   0  0  1  0  0  0  0  0  0  0  0  0
   15.4459   -5.9313   -6.5269 O   0  0  0  0  0  0  0  0  0  0  0  0
   15.5322   -5.7522   -7.8370 O   0  0  0  0  0  0  0  0  0  0  0  0
  2  1  1  1
  2  3  1  0
  3  4  1  0
  4  5  1  6
  4  6  1  0
  6  7  1  6
  6  8  1  0
  8  9  1  6
  8 10  1  0
 10 11  1  1
 11 12  1  0
 12 13  1  0
 13 14  1  6
 14 15  2  0
 13 16  1  0
 16 17  1  0
 17 18  1  1
 17 19  1  0
 19 20  1  6
 19 21  1  0
 21 22  1  1
 22 23  1  0
 10  2  1  0
 21 11  1  0
M  RAD  1  12   2
M  END
>  <docking_score>  (2) 
-4.5970000000000004

$$$$

     RDKit          3D

 23 24  0  0  0  0  0  0  0  0999 V2000
   17.9910   -4.1798   -7.6172 C   0  0  0  0  0  0  0  0  0  0  0  0
   17.7497   -2.8296   -6.9306 C   0  0  1  0  0  0  0  0  0  0  0  0
   16.4692   -2.2832   -7.5584 C   0  0  0  0  0  0  0  0  0  0  0  0
   15.4871   -1.8154   -6.4988 C   0  0  2  0  0  0  0  0  0  0  0  0
   16.0727   -0.7740   -5.7533 O   0  0  0  0  0  0  0  0  0  0  0  0
   15.0527   -2.9222   -5.5726 C   0  0  2  0  0  0  0  0  0  0  0  0
   14.6446   -2.4058   -4.3482 O   0  0  0  0  0  0  0  0  0  0  0  0
   16.2269   -3.8384   -5.3163 C   0  0  1  0  0  0  0  0  0  0  0  0
   16.2073   -4.8253   -6.2980 O   0  0  0  0  0  0  0  0  0  0  0  0
   17.4841   -2.9945   -5.4577 C   0  0  1  0  0  0  0  0  0  0  0  0
   18.5540   -3.3962   -4.6659 N   0  0  0  0  0  0  0  0  0  0  0  0
   18.6018   -4.6980   -4.1782 C   0  0  0  0  0  3  0  0  0  0  0  0
   18.2331   -4.8410   -2.7086 C   0  0  2  0  0  0  0  0  0  0  0  0
   17.2771   -3.8024   -2.2767 C   0  0  0  0  0  0  0  0  0  0  0  0
   16.2251   -3.9482   -1.7289 O   0  0  0  0  0  0  0  0  0  0  0  0
   19.4431   -4.6853   -2.0205 O   0  0  0  0  0  0  0  0  0  0  0  0
   19.6420   -3.2896   -1.9371 C   0  0  1  0  0  0  0  0  0  0  0  0
   20.3171   -3.0808   -0.7327 O   0  0  0  0  0  0  0  0  0  0  0  0
   20.3769   -2.8323   -3.1466 C   0  0  2  0  0  0  0  0  0  0  0  0
   21.1143   -1.6884   -2.7730 O   0  0  0  0  0  0  0  0  0  0  0  0
   19.5674   -2.4849   -4.3318 C   0  0  1  0  0  0  0  0  0  0  0  0
   20.4321   -2.2752   -5.4067 O   0  0  0  0  0  0  0  0  0  0  0  0
   20.3587   -0.9905   -5.7233 O   0  0  0  0  0  0  0  0  0  0  0  0
  2  1  1  6
  2  3  1  0
  3  4  1  0
  4  5  1  1
  4  6  1  0
  6  7  1  1
  6  8  1  0
  8  9  1  6
  8 10  1  0
 10 11  1  1
 11 12  1  0
 12 13  1  0
 13 14  1  1
 14 15  2  0
 13 16  1  0
 16 17  1  0
 17 18  1  1
 17 19  1  0
 19 20  1  1
 19 21  1  0
 21 22  1  6
 22 23  1  0
 10  2  1  0
 21 11  1  0
M  RAD  1  12   2
M  END
>  <docking_score>  (3) 
-4.5170000000000003

$$$$
