
     RDKit          3D

 12 11  0  0  0  0  0  0  0  0999 V2000
   14.1482   -6.3401   -5.3666 O   0  0  0  0  0  0  0  0  0  0  0  0
   15.3631   -6.8045   -4.8460 C   0  0  0  0  0  0  0  0  0  0  0  0
   16.3449   -5.6721   -4.7536 C   0  0  0  0  0  3  0  0  0  0  0  0
   15.9619   -4.6518   -3.8088 N   0  0  0  0  0  0  0  0  0  0  0  0
   16.3187   -3.3178   -4.2608 C   0  0  2  0  0  0  0  0  0  0  0  0
   16.0679   -2.4075   -3.0676 C   0  0  0  0  0  0  0  0  0  0  0  0
   17.2303   -1.9841   -2.4729 O   0  0  0  0  0  0  0  0  0  0  0  0
   15.3808   -2.9833   -5.3867 C   0  0  1  0  0  0  0  0  0  0  0  0
   14.0446   -3.0049   -5.0543 O   0  0  0  0  0  0  0  0  0  0  0  0
   15.7988   -1.8625   -6.2558 C   0  0  2  0  0  0  0  0  0  0  0  0
   14.9267   -0.8111   -6.1073 O   0  0  0  0  0  0  0  0  0  0  0  0
   16.0450   -2.2253   -7.6863 C   0  0  0  0  0  2  0  0  0  0  0  0
  1  2  1  0
  2  3  1  0
  3  4  1  0
  4  5  1  0
  5  6  1  1
  6  7  1  0
  5  8  1  0
  8  9  1  1
  8 10  1  0
 10 11  1  0
 10 12  1  6
M  RAD  2   3   2  12   3
M  END
>  <docking_score>  (1) 
-3.1059999999999999

$$$$

     RDKit          3D

 12 11  0  0  0  0  0  0  0  0999 V2000
   18.3221   -6.2478   -2.9424 O   0  0  0  0  0  0  0  0  0  0  0  0
   17.1453   -5.6321   -3.3881 C   0  0  0  0  0  0  0  0  0  0  0  0
   16.4976   -4.8889   -2.2556 C   0  0  0  0  0  3  0  0  0  0  0  0
   17.0023   -3.5492   -2.0808 N   0  0  0  0  0  0  0  0  0  0  0  0
   16.9780   -2.7838   -3.3156 C   0  0  2  0  0  0  0  0  0  0  0  0
   17.9584   -1.6403   -3.1003 C   0  0  0  0  0  0  0  0  0  0  0  0
   18.7625   -1.4217   -4.1910 O   0  0  0  0  0  0  0  0  0  0  0  0
   15.5778   -2.2580   -3.4646 C   0  0  1  0  0  0  0  0  0  0  0  0
   15.3018   -1.1265   -2.7298 O   0  0  0  0  0  0  0  0  0  0  0  0
   15.0336   -2.2682   -4.8394 C   0  0  2  0  0  0  0  0  0  0  0  0
   14.0969   -1.2720   -4.9741 O   0  0  0  0  0  0  0  0  0  0  0  0
   14.5505   -3.5995   -5.3218 C   0  0  0  0  0  2  0  0  0  0  0  0
  1  2  1  0
  2  3  1  0
  3  4  1  0
  4  5  1  0
  5  6  1  1
  6  7  1  0
  5  8  1  0
  8  9  1  6
  8 10  1  0
 10 11  1  0
 10 12  1  1
M  RAD  2   3   2  12   3
M  END
>  <docking_score>  (2) 
-3.0379999999999998

$$$$

     RDKit          3D

 12 11  0  0  0  0  0  0  0  0999 V2000
   16.3196   -4.6380   -1.8041 O   0  0  0  0  0  0  0  0  0  0  0  0
   16.7063   -3.3435   -2.1749 C   0  0  0  0  0  0  0  0  0  0  0  0
   16.0406   -2.9619   -3.4655 C   0  0  0  0  0  3  0  0  0  0  0  0
   15.4410   -4.0764   -4.1573 N   0  0  0  0  0  0  0  0  0  0  0  0
   14.8834   -3.6937   -5.4433 C   0  0  2  0  0  0  0  0  0  0  0  0
   14.2165   -4.9502   -5.9833 C   0  0  0  0  0  0  0  0  0  0  0  0
   14.4124   -6.0415   -5.1741 O   0  0  0  0  0  0  0  0  0  0  0  0
   16.0446   -3.2972   -6.3113 C   0  0  1  0  0  0  0  0  0  0  0  0
   16.6898   -4.3443   -6.9308 O   0  0  0  0  0  0  0  0  0  0  0  0
   15.8361   -2.0973   -7.1497 C   0  0  2  0  0  0  0  0  0  0  0  0
   14.9984   -1.2206   -6.5035 O   0  0  0  0  0  0  0  0  0  0  0  0
   15.4245   -2.3724   -8.5616 C   0  0  0  0  0  2  0  0  0  0  0  0
  1  2  1  0
  2  3  1  0
  3  4  1  0
  4  5  1  0
  5  6  1  6
  6  7  1  0
  5  8  1  0
  8  9  1  6
  8 10  1  0
 10 11  1  0
 10 12  1  6
M  RAD  2   3   2  12   3
M  END
>  <docking_score>  (3) 
-2.9889999999999999

$$$$
