
     RDKit          3D

 24 24  0  0  0  0  0  0  0  0999 V2000
   14.8318   -1.4941   -4.0948 C   0  0  0  0  0  0  0  0  0  0  0  0
   15.4830   -1.1970   -2.8299 C   0  0  0  0  0  3  0  0  0  0  0  0
   16.4562   -2.2057   -2.2762 C   0  0  0  0  0  0  0  0  0  0  0  0
   17.8135   -1.8429   -2.0662 C   0  0  2  0  0  0  0  0  0  0  0  0
   18.7040   -1.1846   -2.8326 O   0  0  0  0  0  0  0  0  0  0  0  0
   18.6081   -3.3090   -1.9135 C   0  0  2  0  0  0  0  0  0  0  0  0
   19.8133   -3.0505   -1.2559 O   0  0  0  0  0  0  0  0  0  0  0  0
   19.1894   -3.3739   -3.4175 C   0  0  1  0  0  0  0  0  0  0  0  0
   20.4899   -3.6281   -3.4896 O   0  0  0  0  0  0  0  0  0  0  0  0
   18.2309   -4.1387   -4.0262 O   0  0  0  0  0  0  0  0  0  0  0  0
   18.4993   -4.2691   -5.3815 C   0  0  0  0  0  3  0  0  0  0  0  0
   17.2740   -5.1417   -5.9308 C   0  0  1  0  0  0  0  0  0  0  0  0
   16.0065   -4.6523   -5.3711 C   0  0  0  0  0  0  0  0  0  0  0  0
   17.3656   -5.3918   -7.2228 O   0  0  0  0  0  0  0  0  0  0  0  0
   18.2504   -6.3226   -7.6876 C   0  0  0  0  0  0  0  0  0  0  0  0
   17.6480   -7.5610   -7.9489 O   0  0  0  0  0  0  0  0  0  0  0  0
   18.1132   -8.4877   -7.1397 O   0  0  0  0  0  0  0  0  0  0  0  0
   17.1900   -8.7227   -6.1293 C   0  0  1  0  0  0  0  0  0  0  0  0
   17.8475   -9.2495   -4.9780 O   0  0  0  0  0  0  0  0  0  0  0  0
   16.6324   -7.4241   -5.7200 C   0  0  1  0  0  0  0  0  0  0  0  0
   15.4438   -7.4717   -5.0509 O   0  0  0  0  0  0  0  0  0  0  0  0
   17.6481   -6.4952   -5.0958 C   0  0  1  0  0  0  0  0  0  0  0  0
   18.9407   -6.6595   -5.7607 O   0  0  0  0  0  0  0  0  0  0  0  0
   19.8800   -6.9021   -4.7446 N   0  0  0  0  0  0  0  0  0  0  0  0
  1  2  1  0
  2  3  1  0
  3  4  1  0
  4  5  1  6
  4  6  1  0
  6  7  1  1
  6  8  1  0
  8  9  1  1
  8 10  1  0
 10 11  1  0
 11 12  1  0
 12 13  1  6
 12 14  1  0
 14 15  1  0
 15 16  1  0
 16 17  1  0
 17 18  1  0
 18 19  1  1
 18 20  1  0
 20 21  1  1
 20 22  1  0
 22 23  1  6
 23 24  1  0
 22 12  1  0
M  RAD  2   2   2  11   2
M  END
>  <docking_score>  (1) 
-3.585

$$$$

     RDKit          3D

 24 24  0  0  0  0  0  0  0  0999 V2000
   19.6857   -7.9338   -4.9898 C   0  0  0  0  0  0  0  0  0  0  0  0
   20.5625   -7.2695   -4.0399 C   0  0  0  0  0  3  0  0  0  0  0  0
   20.0256   -6.0791   -3.2877 C   0  0  0  0  0  0  0  0  0  0  0  0
   20.8621   -4.9578   -3.0407 C   0  0  2  0  0  0  0  0  0  0  0  0
   21.2609   -4.3586   -1.9024 O   0  0  0  0  0  0  0  0  0  0  0  0
   20.0530   -3.6798   -3.7592 C   0  0  2  0  0  0  0  0  0  0  0  0
   20.5643   -2.5081   -3.1958 O   0  0  0  0  0  0  0  0  0  0  0  0
   18.7070   -3.7784   -2.8744 C   0  0  1  0  0  0  0  0  0  0  0  0
   18.5814   -2.8216   -1.9634 O   0  0  0  0  0  0  0  0  0  0  0  0
   17.7799   -4.0240   -3.8511 O   0  0  0  0  0  0  0  0  0  0  0  0
   17.8623   -3.0675   -4.8532 C   0  0  0  0  0  3  0  0  0  0  0  0
   16.3348   -2.8030   -5.2546 C   0  0  1  0  0  0  0  0  0  0  0  0
   15.4819   -2.8178   -4.0581 C   0  0  0  0  0  0  0  0  0  0  0  0
   16.2014   -1.8354   -6.1415 O   0  0  0  0  0  0  0  0  0  0  0  0
   16.5200   -2.0480   -7.4524 C   0  0  0  0  0  0  0  0  0  0  0  0
   15.3972   -2.3187   -8.2466 O   0  0  0  0  0  0  0  0  0  0  0  0
   15.4446   -3.5444   -8.7215 O   0  0  0  0  0  0  0  0  0  0  0  0
   14.5975   -4.3583   -7.9810 C   0  0  1  0  0  0  0  0  0  0  0  0
   15.0252   -5.7167   -8.0664 O   0  0  0  0  0  0  0  0  0  0  0  0
   14.7333   -3.9780   -6.5661 C   0  0  1  0  0  0  0  0  0  0  0  0
   13.7114   -4.3615   -5.7467 O   0  0  0  0  0  0  0  0  0  0  0  0
   16.1071   -4.2419   -5.9941 C   0  0  1  0  0  0  0  0  0  0  0  0
   17.1237   -3.9835   -7.0138 O   0  0  0  0  0  0  0  0  0  0  0  0
   17.8900   -5.1565   -7.1143 N   0  0  0  0  0  0  0  0  0  0  0  0
  1  2  1  0
  2  3  1  0
  3  4  1  0
  4  5  1  1
  4  6  1  0
  6  7  1  1
  6  8  1  0
  8  9  1  6
  8 10  1  0
 10 11  1  0
 11 12  1  0
 12 13  1  1
 12 14  1  0
 14 15  1  0
 15 16  1  0
 16 17  1  0
 17 18  1  0
 18 19  1  1
 18 20  1  0
 20 21  1  1
 20 22  1  0
 22 23  1  6
 23 24  1  0
 22 12  1  0
M  RAD  2   2   2  11   2
M  END
>  <docking_score>  (2) 
-3.3460000000000001

$$$$

     RDKit          3D

 24 24  0  0  0  0  0  0  0  0999 V2000
    9.5298   15.0719    1.3288 C   0  0  0  0  0  0  0  0  0  0  0  0
    9.2534   15.4414    2.7070 C   0  0  0  0  0  3  0  0  0  0  0  0
    7.8473   15.8473    3.0667 C   0  0  0  0  0  0  0  0  0  0  0  0
    7.3060   15.4913    4.3310 C   0  0  2  0  0  0  0  0  0  0  0  0
    7.6944   15.7634    5.5915 O   0  0  0  0  0  0  0  0  0  0  0  0
    7.4095   13.8203    4.3626 C   0  0  2  0  0  0  0  0  0  0  0  0
    7.0705   13.3687    3.0848 O   0  0  0  0  0  0  0  0  0  0  0  0
    5.9868   13.5498    5.0746 C   0  0  1  0  0  0  0  0  0  0  0  0
    5.4969   14.5945    5.7299 O   0  0  0  0  0  0  0  0  0  0  0  0
    5.3199   12.9027    4.0692 O   0  0  0  0  0  0  0  0  0  0  0  0
    4.4346   11.9708    4.5923 C   0  0  0  0  0  3  0  0  0  0  0  0
    4.8471   10.6039    3.8673 C   0  0  1  0  0  0  0  0  0  0  0  0
    4.8044   10.7664    2.4076 C   0  0  0  0  0  0  0  0  0  0  0  0
    5.8886   10.0225    4.4309 O   0  0  0  0  0  0  0  0  0  0  0  0
    5.7556    9.3640    5.6199 C   0  0  0  0  0  0  0  0  0  0  0  0
    5.6356    7.9765    5.4613 O   0  0  0  0  0  0  0  0  0  0  0  0
    4.4510    7.5613    5.8541 O   0  0  0  0  0  0  0  0  0  0  0  0
    3.6493    7.3374    4.7425 C   0  0  1  0  0  0  0  0  0  0  0  0
    2.2728    7.4476    5.1012 O   0  0  0  0  0  0  0  0  0  0  0  0
    3.9059    8.4194    3.7790 C   0  0  1  0  0  0  0  0  0  0  0  0
    3.5394    8.1660    2.4889 O   0  0  0  0  0  0  0  0  0  0  0  0
    3.4925    9.7861    4.2744 C   0  0  1  0  0  0  0  0  0  0  0  0
    3.7508    9.8889    5.7106 O   0  0  0  0  0  0  0  0  0  0  0  0
    2.6066   10.4749    6.2772 N   0  0  0  0  0  0  0  0  0  0  0  0
  1  2  1  0
  2  3  1  0
  3  4  1  0
  4  5  1  1
  4  6  1  0
  6  7  1  6
  6  8  1  0
  8  9  1  6
  8 10  1  0
 10 11  1  0
 11 12  1  0
 12 13  1  6
 12 14  1  0
 14 15  1  0
 15 16  1  0
 16 17  1  0
 17 18  1  0
 18 19  1  1
 18 20  1  0
 20 21  1  6
 20 22  1  0
 22 23  1  1
 23 24  1  0
 22 12  1  0
M  RAD  2   2   2  11   2
M  END
>  <docking_score>  (3) 
-2.8149999999999999

$$$$
