
     RDKit          3D

 63 65  0  0  0  0  0  0  0  0999 V2000
    7.1011    3.6521   -6.9934 C   0  0  0  0  0  0  0  0  0  0  0  0
    8.3315    2.7996   -7.0048 C   0  0  0  0  0  0  0  0  0  0  0  0
    7.9208    1.3480   -7.1317 C   0  0  0  0  0  0  0  0  0  0  0  0
    9.1771    3.0203   -5.7836 C   0  0  0  0  0  0  0  0  0  0  0  0
    9.4926    1.7314   -5.1175 C   0  0  0  0  0  0  0  0  0  0  0  0
    9.1362    1.7722   -3.6466 C   0  0  2  0  0  0  0  0  0  0  0  0
    8.8974    0.3420   -3.1645 C   0  0  1  0  0  0  0  0  0  0  0  0
    8.4262   -0.4470   -4.3599 C   0  0  0  0  0  0  0  0  0  0  0  0
   10.2610   -0.2039   -2.7689 C   0  0  0  0  0  3  0  0  0  0  0  0
   11.2480   -0.0550   -3.9293 C   0  0  0  0  0  3  0  0  0  0  0  0
   11.5616   -1.4180   -4.5006 C   0  0  0  0  0  0  0  0  0  0  0  0
   12.9409   -1.4343   -5.1247 C   0  0  2  0  0  0  0  0  0  0  0  0
   13.1158   -2.5938   -6.0712 C   0  0  0  0  0  0  0  0  0  0  0  0
   13.9590   -1.5093   -3.9901 C   0  0  0  0  0  0  0  0  0  0  0  0
   14.5822   -0.1253   -3.8341 C   0  0  1  0  0  0  0  0  0  0  0  0
   14.7436    0.1316   -2.4853 F   0  0  0  0  0  0  0  0  0  0  0  0
   15.9418   -0.1807   -4.5009 C   0  0  0  0  0  0  0  0  0  0  0  0
   16.7018   -1.3215   -3.8648 C   0  0  0  0  0  0  0  0  0  0  0  0
   17.1048   -2.3748   -4.8513 C   0  0  2  0  0  0  0  0  0  0  0  0
   16.7911   -2.0345   -6.1490 O   0  0  0  0  0  0  0  0  0  0  0  0
   16.4958   -3.7298   -4.5191 C   0  0  2  0  0  0  0  0  0  0  0  0
   17.6072   -4.7411   -4.5584 C   0  0  0  0  0  0  0  0  0  0  0  0
   17.1258   -6.1383   -4.7979 C   0  0  0  0  0  0  0  0  0  0  0  0
   16.3938   -6.2650   -6.1004 C   0  0  1  0  0  0  0  0  0  0  0  0
   15.4129   -7.2378   -5.9876 O   0  0  0  0  0  0  0  0  0  0  0  0
   15.8612   -4.9556   -6.6148 C   0  0  0  0  0  0  0  0  0  0  0  0
   15.3974   -4.0359   -5.5190 C   0  0  1  0  0  0  0  0  0  0  0  0
   14.1477   -4.5378   -4.8590 C   0  0  0  0  0  0  0  0  0  0  0  0
   12.8995   -3.8686   -5.3101 C   0  0  2  0  0  0  0  0  0  0  0  0
   11.8796   -4.7759   -5.9141 C   0  0  0  0  0  0  0  0  0  0  0  0
   12.2163   -5.2472   -7.2934 C   0  0  0  0  0  0  0  0  0  0  0  0
   10.9669   -5.9322   -7.8567 C   0  0  0  0  0  0  0  0  0  0  0  0
   10.1940   -6.5777   -6.7163 C   0  0  0  0  0  0  0  0  0  0  0  0
    9.2515   -7.6369   -7.2257 C   0  0  2  0  0  0  0  0  0  0  0  0
    9.5287   -8.8818   -6.7003 F   0  0  0  0  0  0  0  0  0  0  0  0
    9.3130   -7.7731   -8.7385 C   0  0  0  0  0  0  0  0  0  0  0  0
    7.8010   -7.3226   -6.8842 C   0  0  0  0  0  0  0  0  0  0  0  0
    7.6712   -5.8436   -6.6960 C   0  0  0  0  0  0  0  0  0  0  0  0
    6.7657   -5.2211   -7.7556 C   0  0  0  0  0  0  0  0  0  0  0  0
    5.3270   -5.6786   -7.5842 C   0  0  0  0  0  0  0  0  0  0  0  0
    5.1141   -7.0610   -8.1447 C   0  0  0  0  0  0  0  0  0  0  0  0
    4.9990   -5.6724   -6.0945 C   0  0  0  0  0  0  0  0  0  0  0  0
    4.4451   -4.6794   -8.3085 C   0  0  0  0  0  0  0  0  0  0  0  0
    4.9404   -3.2750   -8.0010 C   0  0  0  0  0  0  0  0  0  0  0  0
    4.3421   -2.8434   -6.6700 C   0  0  0  0  0  3  0  0  0  0  0  0
    4.9722   -1.5402   -6.2679 C   0  0  0  0  0  0  0  0  0  0  0  0
    4.6706   -0.4811   -7.3224 C   0  0  1  0  0  0  0  0  0  0  0  0
    4.4818   -1.1417   -8.5225 F   0  0  0  0  0  0  0  0  0  0  0  0
    3.4133    0.2765   -6.9725 C   0  0  0  0  0  0  0  0  0  0  0  0
    5.8819    0.4381   -7.4076 C   0  0  0  0  0  0  0  0  0  0  0  0
    5.8246    1.4188   -6.2822 C   0  0  1  0  0  0  0  0  0  0  0  0
    4.9167    0.9951   -5.1553 C   0  0  0  0  0  0  0  0  0  0  0  0
    7.2133    1.7869   -5.7633 C   0  0  0  0  0  3  0  0  0  0  0  0
    7.0045    2.5067   -4.4811 C   0  0  0  0  0  0  0  0  0  0  0  0
    7.8345    2.5499   -3.4621 C   0  0  0  0  0  0  0  0  0  0  0  0
    7.6727    3.2263   -2.1775 C   0  0  0  0  0  0  0  0  0  0  0  0
    8.7370    3.7766   -1.4353 C   0  0  0  0  0  0  0  0  0  0  0  0
    8.7263    4.6058   -0.2655 C   0  0  1  0  0  0  0  0  0  0  0  0
    7.5066    5.2950   -0.1723 F   0  0  0  0  0  0  0  0  0  0  0  0
    8.6220    3.5670    0.9437 C   0  0  0  0  0  0  0  0  0  0  0  0
    9.8470    5.5078    0.0701 C   0  0  2  0  0  0  0  0  0  0  0  0
   11.0561    5.2112   -0.7588 C   0  0  0  0  0  0  0  0  0  0  0  0
   10.0940    5.4715    1.4282 F   0  0  0  0  0  0  0  0  0  0  0  0
  1  2  1  0
  2  3  1  0
  2  4  1  0
  4  5  1  0
  6  5  1  6
  6  7  1  0
  7  8  1  6
  7  9  1  0
  9 10  1  0
 10 11  1  0
 12 11  1  1
 12 13  1  0
 12 14  1  0
 14 15  1  0
 15 16  1  1
 15 17  1  0
 17 18  1  0
 18 19  1  0
 19 20  1  6
 19 21  1  0
 21 22  1  6
 22 23  1  0
 23 24  1  0
 24 25  1  1
 24 26  1  0
 27 26  1  6
 27 28  1  0
 29 28  1  6
 29 30  1  0
 30 31  1  0
 31 32  1  0
 32 33  1  0
 33 34  1  0
 34 35  1  0
 34 36  1  6
 34 37  1  0
 37 38  1  0
 38 39  1  0
 39 40  1  0
 40 41  1  0
 40 42  1  0
 40 43  1  0
 43 44  1  0
 44 45  1  0
 45 46  1  0
 46 47  1  0
 47 48  1  0
 47 49  1  1
 47 50  1  0
 50 51  1  0
 51 52  1  1
 51 53  1  0
 53 54  1  0
 54 55  2  3
 55 56  1  0
 56 57  1  0
 57 58  1  0
 58 59  1  0
 58 60  1  1
 58 61  1  0
 61 62  1  6
 61 63  1  0
 55  6  1  0
 29 13  1  0
 27 21  1  0
M  RAD  4   9   2  10   2  45   2  53   2
M  END
>  <docking_score>  (1) 
118.458

$$$$
