
     RDKit          3D

 50 57  0  0  0  0  0  0  0  0999 V2000
   19.6510   -0.1122   -4.8294 C   0  0  0  0  0  0  0  0  0  0  0  0
   20.7308    0.6071   -4.0584 C   0  0  1  0  0  0  0  0  0  0  0  0
   20.1237    1.7375   -3.2439 C   0  0  0  0  0  0  0  0  0  0  0  0
   21.3438   -0.3840   -3.1007 C   0  0  0  0  0  0  0  0  0  0  0  0
   20.4272   -1.5835   -2.8828 C   0  0  0  0  0  0  0  0  0  0  0  0
   21.1114   -2.4919   -1.9077 C   0  0  0  0  0  0  0  0  0  0  0  0
   20.5659   -3.8828   -1.8788 C   0  0  1  0  0  0  0  0  0  0  0  0
   19.2606   -3.9552   -1.1571 C   0  0  0  0  0  0  0  0  0  0  0  0
   20.5915   -4.5877   -3.1921 C   0  0  1  0  0  0  0  0  0  0  0  0
   21.1899   -5.9396   -3.1814 C   0  0  0  0  0  0  0  0  0  0  0  0
   20.2775   -7.1060   -3.0490 C   0  0  0  0  0  0  0  0  0  0  0  0
   21.0766   -8.3703   -3.0867 C   0  0  1  0  0  0  0  0  0  0  0  0
   21.0493   -9.1602   -1.8245 C   0  0  0  0  0  0  0  0  0  0  0  0
   21.3811   -8.3873   -0.5954 C   0  0  0  0  0  0  0  0  0  0  0  0
   21.0453   -9.1386   -4.3170 C   0  0  0  0  0  0  0  0  0  0  0  0
   20.2043   -9.0384   -5.3378 C   0  0  0  0  0  0  0  0  0  0  0  0
   19.1569   -8.0584   -5.2889 C   0  0  0  0  0  0  0  0  0  0  0  0
   18.4625   -7.6778   -6.5099 C   0  0  2  0  0  0  0  0  0  0  0  0
   17.3407   -8.6942   -6.5716 C   0  0  0  0  0  0  0  0  0  0  0  0
   16.4015   -8.4988   -7.7132 C   0  0  0  0  0  0  0  0  0  0  0  0
   17.8550  -10.1063   -6.4506 C   0  0  0  0  0  0  0  0  0  0  0  0
   16.5328   -8.3353   -5.2935 C   0  0  0  0  0  0  0  0  0  0  0  0
   17.1410   -7.5190   -4.4282 O   0  0  0  0  0  0  0  0  0  0  0  0
   17.3021   -6.4833   -3.6272 S   0  0  1  0  0  0  0  0  0  0  0  0
   17.0958   -5.2699   -2.5493 C   0  0  0  0  0  0  0  0  0  0  0  0
   18.4042   -5.5516   -3.1682 C   0  0  2  0  0  0  0  0  0  0  0  0
   19.2324   -4.5318   -3.9075 C   0  0  2  0  0  0  0  0  0  0  0  0
   19.4041   -4.8913   -5.2758 C   0  0  2  0  0  0  0  0  0  0  0  0
   20.6559   -5.6990   -5.5111 C   0  0  0  0  0  0  0  0  0  0  0  0
   21.3511   -4.3497   -5.7583 C   0  0  0  0  0  0  0  0  0  0  0  0
   19.9803   -4.0921   -6.3636 C   0  0  2  0  0  0  0  0  0  0  0  0
   19.6718   -2.6657   -6.4307 C   0  0  0  0  0  0  0  0  0  0  0  0
   19.8696   -4.8861   -7.6313 C   0  0  0  0  0  0  0  0  0  0  0  0
   20.0344   -6.2024   -7.7889 C   0  0  0  0  0  0  0  0  0  0  0  0
   19.2319   -7.3808   -7.7092 C   0  0  2  0  0  0  0  0  0  0  0  0
   18.0966   -7.1932   -8.7383 C   0  0  0  0  0  0  0  0  0  0  0  0
   17.2167   -6.2421   -7.9544 C   0  0  0  0  0  3  0  0  0  0  0  0
   17.6198   -6.4332   -6.5191 C   0  0  0  0  0  3  0  0  0  0  0  0
   18.1220   -5.2914   -5.8407 C   0  0  0  0  0  0  0  0  0  0  0  0
   17.1401   -4.4787   -5.7740 N   0  0  0  0  0  3  0  0  0  0  0  0
   17.1098   -3.1923   -5.2100 C   0  0  0  0  0  0  0  0  0  0  0  0
   16.0376   -2.3583   -5.8685 C   0  0  0  0  0  0  0  0  0  0  0  0
   16.6670   -1.0647   -6.3611 C   0  0  0  0  0  0  0  0  0  0  0  0
   16.7903   -0.0418   -5.2624 C   0  0  0  0  0  0  0  0  0  0  0  0
   17.6498    1.0904   -5.7398 C   0  0  0  0  0  3  0  0  0  0  0  0
   19.0830    0.7128   -5.9426 C   0  0  2  0  0  0  0  0  0  0  0  0
   19.3455    0.1406   -7.3061 C   0  0  0  0  0  0  0  0  0  0  0  0
   20.6393   -0.6280   -7.3588 C   0  0  0  0  0  0  0  0  0  0  0  0
   20.2821   -2.0724   -7.6854 C   0  0  2  0  0  0  0  0  0  0  0  0
   19.1685   -2.0252   -8.7299 C   0  0  0  0  0  2  0  0  0  0  0  0
  1  2  1  0
  2  3  1  1
  2  4  1  0
  4  5  1  0
  5  6  1  0
  6  7  1  0
  7  8  1  6
  7  9  1  0
  9 10  1  1
 10 11  1  0
 11 12  1  0
 12 13  1  1
 13 14  1  0
 12 15  1  0
 15 16  2  3
 16 17  1  0
 18 17  1  1
 18 19  1  0
 19 20  1  0
 19 21  1  0
 19 22  1  0
 22 23  1  0
 23 24  1  0
 24 25  1  0
 26 25  1  1
 27 26  1  1
 27 28  1  0
 28 29  1  1
 29 30  1  0
 31 30  1  1
 31 32  1  0
 31 33  1  0
 33 34  2  3
 34 35  1  0
 35 36  1  6
 36 37  1  0
 37 38  1  0
 38 39  1  0
 39 40  2  3
 40 41  1  0
 41 42  1  0
 42 43  1  0
 43 44  1  0
 44 45  1  0
 46 45  1  1
 46 47  1  0
 47 48  1  0
 48 49  1  0
 49 50  1  6
 46  1  1  0
 27  9  1  0
 35 18  1  0
 38 18  1  0
 26 24  1  0
 31 28  1  0
 39 28  1  0
 49 32  1  0
M  CHG  1  40   1
M  RAD  5  37   2  38   2  40   2  45   2  50   3
M  END
>  <docking_score>  (1) 
12.27

$$$$
