
     RDKit          3D

 27 27  0  0  0  0  0  0  0  0999 V2000
   13.6411   -2.0204   -4.9514 C   0  0  0  0  0  0  0  0  0  0  0  0
   13.9120   -0.6596   -5.5410 C   0  0  0  0  0  0  0  0  0  0  0  0
   13.7985    0.3598   -4.4037 C   0  0  0  0  0  0  0  0  0  0  0  0
   15.3376   -0.6236   -6.1026 C   0  0  0  0  0  0  0  0  0  0  0  0
   15.4286   -1.7718   -7.0848 C   0  0  0  0  0  0  0  0  0  0  0  0
   16.8673   -1.8950   -7.5481 C   0  0  0  0  0  0  0  0  0  0  0  0
   17.4745   -3.0087   -6.6797 C   0  0  1  0  0  0  0  0  0  0  0  0
   18.8507   -3.2581   -7.2514 C   0  0  0  0  0  0  0  0  0  0  0  0
   17.5140   -2.4632   -5.2825 C   0  0  0  0  0  3  0  0  0  0  0  0
   17.3039   -3.4508   -4.2094 C   0  0  2  0  0  0  0  0  0  0  0  0
   15.9979   -4.1527   -4.2043 C   0  0  0  0  0  0  0  0  0  0  0  0
   16.1239   -5.6390   -4.4842 C   0  0  2  0  0  0  0  0  0  0  0  0
   15.0398   -6.3733   -3.7236 C   0  0  0  0  0  0  0  0  0  0  0  0
   17.4948   -6.1345   -4.0791 C   0  0  0  0  0  3  0  0  0  0  0  0
   18.2018   -6.8313   -5.2106 C   0  0  0  0  0  0  0  0  0  0  0  0
   19.6875   -6.8450   -4.9296 C   0  0  2  0  0  0  0  0  0  0  0  0
   20.3032   -8.1904   -5.2442 C   0  0  0  0  0  0  0  0  0  0  0  0
   19.9661   -6.5414   -3.4882 C   0  0  0  0  0  0  0  0  0  0  0  0
   19.6811   -5.1182   -3.1324 C   0  0  0  0  0  0  0  0  0  0  0  0
   20.7461   -4.1553   -3.5938 C   0  0  1  0  0  0  0  0  0  0  0  0
   21.3822   -4.5525   -4.8935 C   0  0  0  0  0  1  0  0  0  0  0  0
   20.0679   -2.7893   -3.7463 C   0  0  0  0  0  0  0  0  0  0  0  0
   19.0091   -2.6293   -2.7011 C   0  0  0  0  0  0  0  0  0  0  0  0
   19.4331   -2.1031   -1.3742 C   0  0  0  0  0  0  0  0  0  0  0  0
   17.7406   -2.9304   -2.9064 C   0  0  0  0  0  0  0  0  0  0  0  0
   16.7343   -2.7507   -1.8310 C   0  0  0  0  0  0  0  0  0  0  0  0
   15.9558   -1.4672   -2.0285 C   0  0  0  0  0  0  0  0  0  0  0  0
  1  2  1  0
  2  3  1  0
  2  4  1  0
  4  5  1  0
  5  6  1  0
  6  7  1  0
  7  8  1  6
  7  9  1  0
 10  9  1  6
 10 11  1  0
 11 12  1  0
 12 13  1  1
 12 14  1  0
 14 15  1  0
 15 16  1  0
 16 17  1  1
 16 18  1  0
 18 19  1  0
 19 20  1  0
 20 21  1  6
 20 22  1  0
 22 23  1  0
 23 24  1  0
 23 25  2  3
 25 26  1  0
 26 27  1  0
 25 10  1  0
M  RAD  3   9   2  14   2  21   2
M  END
>  <docking_score>  (1) 
-4.5119999999999996

$$$$

     RDKit          3D

 27 27  0  0  0  0  0  0  0  0999 V2000
   20.6081   -0.0069   -3.6042 C   0  0  0  0  0  0  0  0  0  0  0  0
   19.9613    0.5343   -4.8537 C   0  0  0  0  0  0  0  0  0  0  0  0
   20.5557    1.9225   -5.1092 C   0  0  0  0  0  0  0  0  0  0  0  0
   20.2996   -0.3786   -6.0375 C   0  0  0  0  0  0  0  0  0  0  0  0
   19.0698   -1.2288   -6.2738 C   0  0  0  0  0  0  0  0  0  0  0  0
   17.8526   -0.4529   -5.8089 C   0  0  0  0  0  0  0  0  0  0  0  0
   16.8999   -1.5107   -5.2287 C   0  0  1  0  0  0  0  0  0  0  0  0
   15.5619   -1.2454   -5.8786 C   0  0  0  0  0  0  0  0  0  0  0  0
   17.4809   -2.8398   -5.6125 C   0  0  0  0  0  3  0  0  0  0  0  0
   17.1579   -3.9582   -4.7093 C   0  0  2  0  0  0  0  0  0  0  0  0
   15.8017   -4.5429   -4.8408 C   0  0  0  0  0  0  0  0  0  0  0  0
   15.8209   -5.9746   -5.3437 C   0  0  2  0  0  0  0  0  0  0  0  0
   14.6575   -6.7242   -4.7292 C   0  0  0  0  0  0  0  0  0  0  0  0
   17.1343   -6.6371   -4.9901 C   0  0  0  0  0  3  0  0  0  0  0  0
   17.8229   -7.2098   -6.1998 C   0  0  0  0  0  0  0  0  0  0  0  0
   19.2926   -7.3883   -5.8921 C   0  0  2  0  0  0  0  0  0  0  0  0
   19.8118   -8.7164   -6.3969 C   0  0  0  0  0  0  0  0  0  0  0  0
   19.5447   -7.3311   -4.4154 C   0  0  0  0  0  0  0  0  0  0  0  0
   19.3597   -5.9599   -3.8508 C   0  0  0  0  0  0  0  0  0  0  0  0
   20.5117   -5.0291   -4.1349 C   0  0  1  0  0  0  0  0  0  0  0  0
   21.1588   -5.2753   -5.4662 C   0  0  0  0  0  1  0  0  0  0  0  0
   19.9477   -3.6046   -4.0898 C   0  0  0  0  0  0  0  0  0  0  0  0
   18.8696   -3.5186   -3.0557 C   0  0  0  0  0  0  0  0  0  0  0  0
   19.2879   -3.2368   -1.6546 C   0  0  0  0  0  0  0  0  0  0  0  0
   17.5893   -3.6795   -3.3324 C   0  0  0  0  0  0  0  0  0  0  0  0
   16.5639   -3.5830   -2.2644 C   0  0  0  0  0  0  0  0  0  0  0  0
   16.3309   -4.9312   -1.6158 C   0  0  0  0  0  0  0  0  0  0  0  0
  1  2  1  0
  2  3  1  0
  2  4  1  0
  4  5  1  0
  5  6  1  0
  6  7  1  0
  7  8  1  6
  7  9  1  0
 10  9  1  6
 10 11  1  0
 11 12  1  0
 12 13  1  1
 12 14  1  0
 14 15  1  0
 15 16  1  0
 16 17  1  1
 16 18  1  0
 18 19  1  0
 19 20  1  0
 20 21  1  6
 20 22  1  0
 22 23  1  0
 23 24  1  0
 23 25  2  3
 25 26  1  0
 26 27  1  0
 25 10  1  0
M  RAD  3   9   2  14   2  21   2
M  END
>  <docking_score>  (2) 
-4.4649999999999999

$$$$

     RDKit          3D

 27 27  0  0  0  0  0  0  0  0999 V2000
   20.2463   -5.2854   -8.6780 C   0  0  0  0  0  0  0  0  0  0  0  0
   20.0797   -3.7884   -8.7396 C   0  0  0  0  0  0  0  0  0  0  0  0
   18.6734   -3.4655   -8.2261 C   0  0  0  0  0  0  0  0  0  0  0  0
   21.1109   -3.1239   -7.8207 C   0  0  0  0  0  0  0  0  0  0  0  0
   20.5041   -1.8030   -7.3987 C   0  0  0  0  0  0  0  0  0  0  0  0
   21.3353   -1.2326   -6.2657 C   0  0  0  0  0  0  0  0  0  0  0  0
   20.3424   -1.0061   -5.1142 C   0  0  1  0  0  0  0  0  0  0  0  0
   19.6012    0.2624   -5.4669 C   0  0  0  0  0  0  0  0  0  0  0  0
   19.4534   -2.2148   -5.0963 C   0  0  0  0  0  3  0  0  0  0  0  0
   18.4704   -2.2634   -3.9997 C   0  0  2  0  0  0  0  0  0  0  0  0
   17.3755   -1.2648   -4.0494 C   0  0  0  0  0  0  0  0  0  0  0  0
   16.0105   -1.8936   -4.2603 C   0  0  2  0  0  0  0  0  0  0  0  0
   14.9715   -1.0591   -3.5414 C   0  0  0  0  0  0  0  0  0  0  0  0
   16.0043   -3.3175   -3.7490 C   0  0  0  0  0  3  0  0  0  0  0  0
   15.5620   -4.2957   -4.8040 C   0  0  0  0  0  0  0  0  0  0  0  0
   16.0462   -5.6781   -4.4285 C   0  0  2  0  0  0  0  0  0  0  0  0
   14.9757   -6.7240   -4.6485 C   0  0  0  0  0  0  0  0  0  0  0  0
   16.4496   -5.7344   -2.9858 C   0  0  0  0  0  0  0  0  0  0  0  0
   17.7038   -4.9712   -2.7068 C   0  0  0  0  0  0  0  0  0  0  0  0
   18.9572   -5.6905   -3.1379 C   0  0  1  0  0  0  0  0  0  0  0  0
   18.7710   -6.5157   -4.3773 C   0  0  0  0  0  1  0  0  0  0  0  0
   20.0184   -4.6133   -3.3885 C   0  0  0  0  0  0  0  0  0  0  0  0
   19.8363   -3.4871   -2.4203 C   0  0  0  0  0  0  0  0  0  0  0  0
   20.4959   -3.6153   -1.0914 C   0  0  0  0  0  0  0  0  0  0  0  0
   19.1284   -2.4073   -2.6936 C   0  0  0  0  0  0  0  0  0  0  0  0
   18.9828   -1.3217   -1.6927 C   0  0  0  0  0  0  0  0  0  0  0  0
   20.1787   -0.3936   -1.7245 C   0  0  0  0  0  0  0  0  0  0  0  0
  1  2  1  0
  2  3  1  0
  2  4  1  0
  4  5  1  0
  5  6  1  0
  6  7  1  0
  7  8  1  6
  7  9  1  0
 10  9  1  6
 10 11  1  0
 11 12  1  0
 12 13  1  1
 12 14  1  0
 14 15  1  0
 15 16  1  0
 16 17  1  1
 16 18  1  0
 18 19  1  0
 19 20  1  0
 20 21  1  6
 20 22  1  0
 22 23  1  0
 23 24  1  0
 23 25  2  3
 25 26  1  0
 26 27  1  0
 25 10  1  0
M  RAD  3   9   2  14   2  21   2
M  END
>  <docking_score>  (3) 
-3.9079999999999999

$$$$
