
     RDKit          3D

 14 14  0  0  0  0  0  0  0  0999 V2000
   21.3373    2.4319   -4.2476 C   0  0  0  0  0  0  0  0  0  0  0  0
   21.3694    3.7380   -4.7410 O   0  0  0  0  0  0  0  0  0  0  0  0
   20.3251    4.3842   -5.3445 C   0  0  0  0  0  0  0  0  0  0  0  0
   19.5726    3.7988   -6.3339 C   0  0  0  0  0  0  0  0  0  0  0  0
   18.5331    4.4868   -6.9110 C   0  0  0  0  0  0  0  0  0  0  0  0
   18.2376    5.7754   -6.4986 C   0  0  0  0  0  0  0  0  0  0  0  0
   18.9803    6.3771   -5.5095 C   0  0  0  0  0  0  0  0  0  0  0  0
   20.0157    5.6716   -4.9453 C   0  0  0  0  0  0  0  0  0  0  0  0
   20.9908    6.4243   -3.6664 S   0  0  0  0  0  0  0  0  0  0  0  0
   19.9433    7.5417   -2.7556 C   0  0  0  0  0  0  0  0  0  0  0  0
   20.5099    8.4710   -2.0163 C   0  0  0  0  0  0  0  0  0  0  0  0
   19.7410    9.4359   -1.2315 C   0  0  0  0  0  0  0  0  0  0  0  0
   19.4076   10.5858   -1.7391 C   0  0  0  0  0  0  0  0  0  0  0  0
   19.0554   11.6986   -2.1527 O   0  0  0  0  0  0  0  0  0  0  0  0
  1  2  1  0
  2  3  1  0
  3  4  2  0
  4  5  1  0
  5  6  2  0
  6  7  1  0
  7  8  2  0
  8  9  1  0
  9 10  1  0
 10 11  2  3
 11 12  1  0
 12 13  2  0
 13 14  2  0
  8  3  1  0
M  END
>  <docking_score>  (1) 
-4.8380000000000001

$$$$

     RDKit          3D

 14 14  0  0  0  0  0  0  0  0999 V2000
   14.2901   -5.8841   -5.7410 C   0  0  0  0  0  0  0  0  0  0  0  0
   15.1360   -5.6227   -4.6611 O   0  0  0  0  0  0  0  0  0  0  0  0
   16.3769   -6.1683   -4.4746 C   0  0  0  0  0  0  0  0  0  0  0  0
   16.8352   -7.2237   -5.2256 C   0  0  0  0  0  0  0  0  0  0  0  0
   18.0890   -7.7387   -5.0024 C   0  0  0  0  0  0  0  0  0  0  0  0
   18.8987   -7.1965   -4.0184 C   0  0  0  0  0  0  0  0  0  0  0  0
   18.4564   -6.1398   -3.2570 C   0  0  0  0  0  0  0  0  0  0  0  0
   17.1991   -5.6396   -3.4964 C   0  0  0  0  0  0  0  0  0  0  0  0
   16.6028   -4.2758   -2.5283 S   0  0  0  0  0  0  0  0  0  0  0  0
   17.5669   -2.8363   -2.9454 C   0  0  0  0  0  0  0  0  0  0  0  0
   18.3031   -2.2806   -2.0072 C   0  0  0  0  0  0  0  0  0  0  0  0
   19.1294   -1.0981   -2.2461 C   0  0  0  0  0  0  0  0  0  0  0  0
   20.1704   -0.8576   -1.5048 C   0  0  0  0  0  0  0  0  0  0  0  0
   21.1734   -0.5619   -0.8415 O   0  0  0  0  0  0  0  0  0  0  0  0
  1  2  1  0
  2  3  1  0
  3  4  2  0
  4  5  1  0
  5  6  2  0
  6  7  1  0
  7  8  2  0
  8  9  1  0
  9 10  1  0
 10 11  2  3
 11 12  1  0
 12 13  2  0
 13 14  2  0
  8  3  1  0
M  END
>  <docking_score>  (2) 
-3.8610000000000002

$$$$

     RDKit          3D

 14 14  0  0  0  0  0  0  0  0999 V2000
   13.8908   -0.5311   -4.6073 C   0  0  0  0  0  0  0  0  0  0  0  0
   14.5800   -1.7371   -4.4625 O   0  0  0  0  0  0  0  0  0  0  0  0
   15.4948   -2.2396   -5.3473 C   0  0  0  0  0  0  0  0  0  0  0  0
   15.6299   -1.7468   -6.6227 C   0  0  0  0  0  0  0  0  0  0  0  0
   16.5630   -2.2834   -7.4763 C   0  0  0  0  0  0  0  0  0  0  0  0
   17.3731   -3.3249   -7.0558 C   0  0  0  0  0  0  0  0  0  0  0  0
   17.2517   -3.8307   -5.7824 C   0  0  0  0  0  0  0  0  0  0  0  0
   16.3123   -3.2798   -4.9445 C   0  0  0  0  0  0  0  0  0  0  0  0
   16.1341   -3.9134   -3.2954 S   0  0  0  0  0  0  0  0  0  0  0  0
   17.5455   -3.3866   -2.3434 C   0  0  0  0  0  0  0  0  0  0  0  0
   18.6297   -4.1316   -2.3638 C   0  0  0  0  0  0  0  0  0  0  0  0
   19.8400   -3.7883   -1.6184 C   0  0  0  0  0  0  0  0  0  0  0  0
   20.0927   -2.5531   -1.2996 C   0  0  0  0  0  0  0  0  0  0  0  0
   20.4011   -1.4023   -0.9622 O   0  0  0  0  0  0  0  0  0  0  0  0
  1  2  1  0
  2  3  1  0
  3  4  2  0
  4  5  1  0
  5  6  2  0
  6  7  1  0
  7  8  2  0
  8  9  1  0
  9 10  1  0
 10 11  2  3
 11 12  1  0
 12 13  2  0
 13 14  2  0
  8  3  1  0
M  END
>  <docking_score>  (3) 
-3.8199999999999998

$$$$
