
     RDKit          3D

 32 32  0  0  0  0  0  0  0  0999 V2000
   20.9738   -6.5979   -7.6432 C   0  0  0  0  0  0  0  0  0  0  0  0
   20.8082   -8.0662   -7.9988 C   0  0  0  0  0  0  0  0  0  0  0  0
   21.3810   -8.9659   -6.9322 C   0  0  0  0  0  0  0  0  0  0  0  0
   19.3383   -8.3232   -8.1793 C   0  0  0  0  0  0  0  0  0  0  0  0
   18.6682   -8.4629   -6.8286 C   0  0  0  0  0  0  0  0  0  0  0  0
   17.3445   -9.2079   -6.9700 C   0  0  0  0  0  0  0  0  0  0  0  0
   16.6252   -9.1158   -5.6249 C   0  0  1  0  0  0  0  0  0  0  0  0
   17.2802  -10.0737   -4.6868 C   0  0  0  0  0  0  0  0  0  0  0  0
   16.7766   -7.6467   -5.2032 C   0  0  0  0  0  3  0  0  0  0  0  0
   15.4856   -6.9495   -5.5607 C   0  0  0  0  0  0  0  0  0  0  0  0
   15.7445   -6.0923   -6.7799 C   0  0  0  0  0  0  0  0  0  0  0  0
   15.8774   -4.6655   -6.3871 C   0  0  2  0  0  0  0  0  0  0  0  0
   14.9319   -3.6958   -6.9804 C   0  0  0  0  0  0  0  0  0  0  0  0
   17.2969   -4.2163   -6.7465 C   0  0  0  0  0  0  0  0  0  0  0  0
   17.9910   -3.9323   -5.4158 C   0  0  0  0  0  0  0  0  0  0  0  0
   18.2427   -5.3098   -4.7888 C   0  0  0  0  0  0  0  0  0  0  0  0
   19.7285   -5.4217   -4.5832 C   0  0  2  0  0  0  0  0  0  0  0  0
   20.1739   -6.8184   -4.2391 C   0  0  0  0  0  0  0  0  0  0  0  0
   20.1330   -4.4026   -3.5492 C   0  0  0  0  0  0  0  0  0  0  0  0
   18.9033   -3.8610   -2.8269 C   0  0  0  0  0  0  0  0  0  0  0  0
   19.3375   -3.0395   -1.6469 C   0  0  0  0  0  0  0  0  0  0  0  0
   20.8094   -3.2050   -1.3951 C   0  0  0  0  0  0  0  0  0  0  0  0
   21.3743   -2.0831   -0.5646 C   0  0  0  0  0  0  0  0  0  0  0  0
   21.0273   -0.7231   -1.0780 C   0  0  0  0  0  0  0  0  0  0  0  0
   20.1897   -0.7841   -2.3336 C   0  0  0  0  0  0  0  0  0  0  0  0
   20.9998   -0.5263   -3.5766 C   0  0  0  0  0  0  0  0  0  0  0  0
   20.1013   -0.6080   -4.7673 C   0  0  0  0  0  0  0  0  0  0  0  0
   18.6560   -0.2895   -4.4322 C   0  0  0  0  0  3  0  0  0  0  0  0
   17.9054   -0.3084   -5.6768 N   0  0  0  0  0  0  0  0  0  0  0  0
   16.5435   -0.7460   -5.4362 C   0  0  0  0  0  0  0  0  0  0  0  0
   15.9663   -1.4577   -6.6236 C   0  0  0  0  0  0  0  0  0  0  0  0
   14.9154   -2.4363   -6.1405 C   0  0  0  0  0  3  0  0  0  0  0  0
  1  2  1  0
  2  3  1  0
  2  4  1  0
  4  5  1  0
  5  6  1  0
  6  7  1  0
  7  8  1  1
  7  9  1  0
  9 10  1  0
 10 11  1  0
 12 11  1  6
 12 13  1  0
 12 14  1  0
 14 15  1  0
 15 16  1  0
 16 17  1  0
 17 18  1  1
 17 19  1  0
 19 20  1  0
 20 21  1  0
 21 22  1  0
 22 23  1  0
 23 24  1  0
 24 25  1  0
 25 26  1  0
 26 27  1  0
 27 28  1  0
 28 29  1  0
 29 30  1  0
 30 31  1  0
 31 32  1  0
 32 13  1  0
M  RAD  3   9   2  28   2  32   2
M  END
>  <docking_score>  (1) 
-2.6890000000000001

$$$$

     RDKit          3D

 32 32  0  0  0  0  0  0  0  0999 V2000
    7.3454   15.7749    2.0114 C   0  0  0  0  0  0  0  0  0  0  0  0
    8.2957   14.8728    2.7815 C   0  0  0  0  0  0  0  0  0  0  0  0
    8.1959   15.0990    4.2695 C   0  0  0  0  0  0  0  0  0  0  0  0
    7.9488   13.4520    2.4344 C   0  0  0  0  0  0  0  0  0  0  0  0
    7.1781   13.4114    1.1317 C   0  0  0  0  0  0  0  0  0  0  0  0
    5.6937   13.1874    1.4028 C   0  0  0  0  0  0  0  0  0  0  0  0
    5.5284   13.0138    2.9120 C   0  0  1  0  0  0  0  0  0  0  0  0
    4.0981   12.6861    3.1832 C   0  0  0  0  0  0  0  0  0  0  0  0
    6.4960   11.8795    3.2807 C   0  0  0  0  0  3  0  0  0  0  0  0
    5.8722   11.1229    4.4293 C   0  0  0  0  0  0  0  0  0  0  0  0
    6.1613   11.8901    5.7006 C   0  0  0  0  0  0  0  0  0  0  0  0
    5.3833   11.3227    6.8322 C   0  0  2  0  0  0  0  0  0  0  0  0
    4.5578   10.1245    6.5694 C   0  0  0  0  0  0  0  0  0  0  0  0
    4.4574   12.4243    7.3564 C   0  0  0  0  0  0  0  0  0  0  0  0
    4.9554   12.7494    8.7633 C   0  0  0  0  0  0  0  0  0  0  0  0
    6.2720   13.5106    8.5606 C   0  0  0  0  0  0  0  0  0  0  0  0
    6.0966   14.8522    9.2176 C   0  0  2  0  0  0  0  0  0  0  0  0
    7.1887   15.8284    8.8687 C   0  0  0  0  0  0  0  0  0  0  0  0
    5.9577   14.6288   10.7015 C   0  0  0  0  0  0  0  0  0  0  0  0
    6.3775   13.2084   11.0670 C   0  0  0  0  0  0  0  0  0  0  0  0
    6.4664   13.0817   12.5609 C   0  0  0  0  0  0  0  0  0  0  0  0
    6.3628   14.4293   13.2171 C   0  0  0  0  0  0  0  0  0  0  0  0
    5.9751   14.3271   14.6686 C   0  0  0  0  0  0  0  0  0  0  0  0
    4.7709   13.4753   14.9093 C   0  0  0  0  0  0  0  0  0  0  0  0
    4.2035   12.9142   13.6268 C   0  0  0  0  0  0  0  0  0  0  0  0
    2.9878   13.6697   13.1586 C   0  0  0  0  0  0  0  0  0  0  0  0
    2.4938   13.0559   11.8893 C   0  0  0  0  0  0  0  0  0  0  0  0
    2.8710   11.5916   11.7624 C   0  0  0  0  0  3  0  0  0  0  0  0
    2.2584   11.0875   10.5444 N   0  0  0  0  0  0  0  0  0  0  0  0
    3.0825   10.0463    9.9607 C   0  0  0  0  0  0  0  0  0  0  0  0
    2.9491    9.9982    8.4675 C   0  0  0  0  0  0  0  0  0  0  0  0
    4.2322    9.4444    7.8822 C   0  0  0  0  0  3  0  0  0  0  0  0
  1  2  1  0
  2  3  1  0
  2  4  1  0
  4  5  1  0
  5  6  1  0
  6  7  1  0
  7  8  1  6
  7  9  1  0
  9 10  1  0
 10 11  1  0
 12 11  1  6
 12 13  1  0
 12 14  1  0
 14 15  1  0
 15 16  1  0
 16 17  1  0
 17 18  1  1
 17 19  1  0
 19 20  1  0
 20 21  1  0
 21 22  1  0
 22 23  1  0
 23 24  1  0
 24 25  1  0
 25 26  1  0
 26 27  1  0
 27 28  1  0
 28 29  1  0
 29 30  1  0
 30 31  1  0
 31 32  1  0
 32 13  1  0
M  RAD  3   9   2  28   2  32   2
M  END
>  <docking_score>  (2) 
-1.474

$$$$

     RDKit          3D

 32 32  0  0  0  0  0  0  0  0999 V2000
   18.1698  -10.5197   -8.3831 C   0  0  0  0  0  0  0  0  0  0  0  0
   17.1098  -11.1001   -7.4613 C   0  0  0  0  0  0  0  0  0  0  0  0
   17.2635  -12.5925   -7.3055 C   0  0  0  0  0  0  0  0  0  0  0  0
   17.2411  -10.4096   -6.1326 C   0  0  0  0  0  0  0  0  0  0  0  0
   18.1896   -9.2353   -6.2518 C   0  0  0  0  0  0  0  0  0  0  0  0
   17.9583   -8.2513   -5.1092 C   0  0  0  0  0  0  0  0  0  0  0  0
   18.9779   -8.5743   -4.0178 C   0  0  1  0  0  0  0  0  0  0  0  0
   20.1693   -9.1922   -4.6700 C   0  0  0  0  0  0  0  0  0  0  0  0
   19.2771   -7.2223   -3.3532 C   0  0  0  0  0  3  0  0  0  0  0  0
   20.7593   -7.1903   -3.0653 C   0  0  0  0  0  0  0  0  0  0  0  0
   21.3810   -6.1357   -3.9537 C   0  0  0  0  0  0  0  0  0  0  0  0
   20.3995   -5.6746   -4.9695 C   0  0  2  0  0  0  0  0  0  0  0  0
   20.4983   -6.2421   -6.3313 C   0  0  0  0  0  0  0  0  0  0  0  0
   20.5319   -4.1531   -5.0847 C   0  0  0  0  0  0  0  0  0  0  0  0
   19.2166   -3.5818   -4.5589 C   0  0  0  0  0  0  0  0  0  0  0  0
   19.2635   -3.7907   -3.0396 C   0  0  0  0  0  0  0  0  0  0  0  0
   19.1371   -2.4279   -2.4158 C   0  0  2  0  0  0  0  0  0  0  0  0
   19.4475   -2.4214   -0.9423 C   0  0  0  0  0  0  0  0  0  0  0  0
   17.7618   -1.8980   -2.7308 C   0  0  0  0  0  0  0  0  0  0  0  0
   16.8675   -3.0177   -3.2538 C   0  0  0  0  0  0  0  0  0  0  0  0
   15.4486   -2.5309   -3.3289 C   0  0  0  0  0  0  0  0  0  0  0  0
   15.3043   -1.2017   -2.6438 C   0  0  0  0  0  0  0  0  0  0  0  0
   14.0672   -0.4653   -3.0852 C   0  0  0  0  0  0  0  0  0  0  0  0
   13.9255   -0.3664   -4.5697 C   0  0  0  0  0  0  0  0  0  0  0  0
   15.0742   -1.0244   -5.2973 C   0  0  0  0  0  0  0  0  0  0  0  0
   16.0804   -0.0248   -5.8034 C   0  0  0  0  0  0  0  0  0  0  0  0
   17.1797   -0.7547   -6.5040 C   0  0  0  0  0  0  0  0  0  0  0  0
   16.7299   -2.0915   -7.0639 C   0  0  0  0  0  3  0  0  0  0  0  0
   17.8507   -2.6564   -7.7970 N   0  0  0  0  0  0  0  0  0  0  0  0
   17.8200   -4.1048   -7.7250 C   0  0  0  0  0  0  0  0  0  0  0  0
   19.1963   -4.6977   -7.7893 C   0  0  0  0  0  0  0  0  0  0  0  0
   19.1887   -6.0251   -7.0591 C   0  0  0  0  0  3  0  0  0  0  0  0
  1  2  1  0
  2  3  1  0
  2  4  1  0
  4  5  1  0
  5  6  1  0
  6  7  1  0
  7  8  1  6
  7  9  1  0
  9 10  1  0
 10 11  1  0
 12 11  1  1
 12 13  1  0
 12 14  1  0
 14 15  1  0
 15 16  1  0
 16 17  1  0
 17 18  1  1
 17 19  1  0
 19 20  1  0
 20 21  1  0
 21 22  1  0
 22 23  1  0
 23 24  1  0
 24 25  1  0
 25 26  1  0
 26 27  1  0
 27 28  1  0
 28 29  1  0
 29 30  1  0
 30 31  1  0
 31 32  1  0
 32 13  1  0
M  RAD  3   9   2  28   2  32   2
M  END
>  <docking_score>  (3) 
-0.71899999999999997

$$$$
