
     RDKit          3D

  8  7  0  0  0  0  0  0  0  0999 V2000
  138.4414  118.8013  139.1815 C   0  0  0  0  0  0  0  0  0  0  0  0
  138.2169  120.0043  138.6564 C   0  0  0  0  0  0  0  0  0  0  0  0
  136.8895  120.3349  138.1520 C   0  0  0  0  0  0  0  0  0  0  0  0
  136.0365  121.0335  138.7806 N   0  0  0  0  0  0  0  0  0  0  0  0
  136.2022  121.6213  140.0763 C   0  0  2  0  0  0  0  0  0  0  0  0
  134.9214  121.7008  140.6987 N   0  0  0  0  0  0  0  0  0  0  0  0
  133.8583  121.4292  140.0770 C   0  0  0  0  0  0  0  0  0  0  0  0
  136.8103  122.9184  140.0252 N   0  0  0  0  0  0  0  0  0  0  0  0
  1  2  2  0
  2  3  1  0
  3  4  2  3
  4  5  1  0
  5  6  1  0
  6  7  2  0
  5  8  1  6
M  END
>  <docking_score>  (1) 
-3.4689999999999999

$$$$

     RDKit          3D

  8  7  0  0  0  0  0  0  0  0999 V2000
  132.7087  123.9283  139.1284 C   0  0  0  0  0  0  0  0  0  0  0  0
  133.8277  123.2145  139.2361 C   0  0  0  0  0  0  0  0  0  0  0  0
  133.7708  121.8609  139.7750 C   0  0  0  0  0  0  0  0  0  0  0  0
  134.6964  121.0011  139.6542 N   0  0  0  0  0  0  0  0  0  0  0  0
  135.9485  121.1829  138.9825 C   0  0  2  0  0  0  0  0  0  0  0  0
  136.1671  120.0595  138.1314 N   0  0  0  0  0  0  0  0  0  0  0  0
  135.6310  118.9395  138.3524 C   0  0  0  0  0  0  0  0  0  0  0  0
  137.0482  121.3404  139.8884 N   0  0  0  0  0  0  0  0  0  0  0  0
  1  2  2  0
  2  3  1  0
  3  4  2  3
  4  5  1  0
  5  6  1  0
  6  7  2  0
  5  8  1  1
M  END
>  <docking_score>  (2) 
-3.4409999999999998

$$$$
