
     RDKit          3D

 28 28  0  0  0  0  0  0  0  0999 V2000
    3.9051    9.0025    5.7672 C   0  0  0  0  0  0  0  0  0  0  0  0
    5.0322    8.8840    4.9479 O   0  0  0  0  0  0  0  0  0  0  0  0
    4.8974    9.8393    3.9302 C   0  0  0  0  0  3  0  0  0  0  0  0
    5.9849   10.7066    4.0506 O   0  0  0  0  0  0  0  0  0  0  0  0
    5.5801   11.9721    3.5973 C   0  0  2  0  0  0  0  0  0  0  0  0
    4.8253   11.7286    2.3049 C   0  0  0  0  0  0  0  0  0  0  0  0
    3.5929   12.5977    2.2481 C   0  0  0  0  0  2  0  0  0  0  0  0
    6.8202   12.8050    3.3651 C   0  0  1  0  0  0  0  0  0  0  0  0
    6.5467   13.6591    2.3096 O   0  0  0  0  0  0  0  0  0  0  0  0
    7.3800   13.4792    1.2194 C   0  0  0  0  0  2  0  0  0  0  0  0
    7.1743   13.5538    4.6400 C   0  0  0  0  0  0  0  0  0  0  0  0
    7.4321   14.9996    4.3040 C   0  0  2  0  0  0  0  0  0  0  0  0
    8.8906   15.3430    4.4322 C   0  0  0  0  0  0  0  0  0  0  0  0
    6.7125   15.7993    5.1723 O   0  0  0  0  0  0  0  0  0  0  0  0
    7.3625   15.9230    6.3933 C   0  0  0  0  0  0  0  0  0  0  0  0
    6.3589   15.8035    7.5264 C   0  0  0  0  0  3  0  0  0  0  0  0
    7.0197   15.5365    8.7282 O   0  0  0  0  0  0  0  0  0  0  0  0
    6.3937   14.4546    9.3415 C   0  0  0  0  0  3  0  0  0  0  0  0
    5.1721   14.9018    9.8674 O   0  0  0  0  0  0  0  0  0  0  0  0
    4.1817   13.9549    9.5749 C   0  0  2  0  0  0  0  0  0  0  0  0
    2.9490   14.5792    9.6693 O   0  0  0  0  0  0  0  0  0  0  0  0
    4.2639   12.8853   10.6414 C   0  0  0  0  0  0  0  0  0  0  0  0
    4.8496   11.6368   10.0380 C   0  0  0  0  0  0  0  0  0  0  0  0
    3.7961   10.5454   10.1299 C   0  0  0  0  0  3  0  0  0  0  0  0
    4.1643    9.4401    9.3771 O   0  0  0  0  0  0  0  0  0  0  0  0
    3.6210    9.6024    8.1066 C   0  0  2  0  0  0  0  0  0  0  0  0
    2.2603    9.2635    8.0797 O   0  0  0  0  0  0  0  0  0  0  0  0
    4.3442    8.6602    7.1675 C   0  0  0  0  0  3  0  0  0  0  0  0
  1  2  1  0
  2  3  1  0
  3  4  1  0
  4  5  1  0
  5  6  1  6
  6  7  1  0
  5  8  1  0
  8  9  1  6
  9 10  1  0
  8 11  1  0
 11 12  1  0
 12 13  1  1
 12 14  1  0
 14 15  1  0
 15 16  1  0
 16 17  1  0
 17 18  1  0
 18 19  1  0
 19 20  1  0
 20 21  1  1
 20 22  1  0
 22 23  1  0
 23 24  1  0
 24 25  1  0
 25 26  1  0
 26 27  1  1
 26 28  1  0
 28  1  1  0
M  RAD  7   3   2   7   3  10   3  16   2  18   2  24   2  28   2
M  END
>  <docking_score>  (1) 
-4.1100000000000003

$$$$

     RDKit          3D

 28 28  0  0  0  0  0  0  0  0999 V2000
    4.3198    9.0793    5.2246 C   0  0  0  0  0  0  0  0  0  0  0  0
    5.5250    9.1705    4.5212 O   0  0  0  0  0  0  0  0  0  0  0  0
    5.4085   10.2674    3.6554 C   0  0  0  0  0  3  0  0  0  0  0  0
    6.4048   11.1737    4.0236 O   0  0  0  0  0  0  0  0  0  0  0  0
    5.9418   12.4665    3.7317 C   0  0  2  0  0  0  0  0  0  0  0  0
    5.3346   12.3869    2.3445 C   0  0  0  0  0  0  0  0  0  0  0  0
    6.3429   11.8403    1.3636 C   0  0  0  0  0  2  0  0  0  0  0  0
    7.1254   13.4063    3.7644 C   0  0  1  0  0  0  0  0  0  0  0  0
    6.8832   14.4007    2.8312 O   0  0  0  0  0  0  0  0  0  0  0  0
    7.9706   14.6793    2.0218 C   0  0  0  0  0  2  0  0  0  0  0  0
    7.2950   13.9596    5.1703 C   0  0  0  0  0  0  0  0  0  0  0  0
    7.4635   15.4546    5.0919 C   0  0  2  0  0  0  0  0  0  0  0  0
    8.8702   15.8684    5.4258 C   0  0  0  0  0  0  0  0  0  0  0  0
    6.6019   16.0531    5.9925 O   0  0  0  0  0  0  0  0  0  0  0  0
    7.1216   16.0194    7.2798 C   0  0  0  0  0  0  0  0  0  0  0  0
    6.0290   15.6510    8.2677 C   0  0  0  0  0  3  0  0  0  0  0  0
    6.5934   15.2365    9.4768 O   0  0  0  0  0  0  0  0  0  0  0  0
    6.0036   14.0302    9.8450 C   0  0  0  0  0  3  0  0  0  0  0  0
    4.7052   14.3040   10.3012 O   0  0  0  0  0  0  0  0  0  0  0  0
    3.8280   13.3539    9.7619 C   0  0  2  0  0  0  0  0  0  0  0  0
    2.5447   13.8715    9.8207 O   0  0  0  0  0  0  0  0  0  0  0  0
    3.8972   12.1329   10.6523 C   0  0  0  0  0  0  0  0  0  0  0  0
    4.6378   11.0407    9.9281 C   0  0  0  0  0  0  0  0  0  0  0  0
    3.6738    9.8816    9.7374 C   0  0  0  0  0  3  0  0  0  0  0  0
    4.2010    8.9402    8.8656 O   0  0  0  0  0  0  0  0  0  0  0  0
    3.7682    9.2706    7.5852 C   0  0  2  0  0  0  0  0  0  0  0  0
    2.4486    8.8513    7.3619 O   0  0  0  0  0  0  0  0  0  0  0  0
    4.6517    8.5437    6.5935 C   0  0  0  0  0  3  0  0  0  0  0  0
  1  2  1  0
  2  3  1  0
  3  4  1  0
  4  5  1  0
  5  6  1  6
  6  7  1  0
  5  8  1  0
  8  9  1  6
  9 10  1  0
  8 11  1  0
 11 12  1  0
 12 13  1  1
 12 14  1  0
 14 15  1  0
 15 16  1  0
 16 17  1  0
 17 18  1  0
 18 19  1  0
 19 20  1  0
 20 21  1  1
 20 22  1  0
 22 23  1  0
 23 24  1  0
 24 25  1  0
 25 26  1  0
 26 27  1  1
 26 28  1  0
 28  1  1  0
M  RAD  7   3   2   7   3  10   3  16   2  18   2  24   2  28   2
M  END
>  <docking_score>  (2) 
-3.2989999999999999

$$$$

     RDKit          3D

 28 28  0  0  0  0  0  0  0  0999 V2000
    3.7711    9.1773    7.4824 C   0  0  0  0  0  0  0  0  0  0  0  0
    4.7891    8.5329    6.7725 O   0  0  0  0  0  0  0  0  0  0  0  0
    4.6985    8.9712    5.4436 C   0  0  0  0  0  3  0  0  0  0  0  0
    5.9050    9.6100    5.1510 O   0  0  0  0  0  0  0  0  0  0  0  0
    5.6447   10.6101    4.2007 C   0  0  2  0  0  0  0  0  0  0  0  0
    4.7467    9.9704    3.1599 C   0  0  0  0  0  0  0  0  0  0  0  0
    3.3945   10.6405    3.1538 C   0  0  0  0  0  2  0  0  0  0  0  0
    6.9641   11.0423    3.6026 C   0  0  1  0  0  0  0  0  0  0  0  0
    6.7189   11.3980    2.2866 O   0  0  0  0  0  0  0  0  0  0  0  0
    5.8015   12.4252    2.1508 C   0  0  0  0  0  2  0  0  0  0  0  0
    7.5377   12.1913    4.4164 C   0  0  0  0  0  0  0  0  0  0  0  0
    7.9670   13.2898    3.4790 C   0  0  2  0  0  0  0  0  0  0  0  0
    9.4651   13.4036    3.4136 C   0  0  0  0  0  0  0  0  0  0  0  0
    7.4523   14.4919    3.9277 O   0  0  0  0  0  0  0  0  0  0  0  0
    8.2234   15.0124    4.9588 C   0  0  0  0  0  0  0  0  0  0  0  0
    7.3221   15.5581    6.0521 C   0  0  0  0  0  3  0  0  0  0  0  0
    8.0463   15.7212    7.2359 O   0  0  0  0  0  0  0  0  0  0  0  0
    7.3319   15.1264    8.2722 C   0  0  0  0  0  3  0  0  0  0  0  0
    6.2404   15.9539    8.5771 O   0  0  0  0  0  0  0  0  0  0  0  0
    5.1023   15.1547    8.7472 C   0  0  2  0  0  0  0  0  0  0  0  0
    3.9853   15.9577    8.5868 O   0  0  0  0  0  0  0  0  0  0  0  0
    5.1294   14.6445   10.1710 C   0  0  0  0  0  0  0  0  0  0  0  0
    5.4726   13.1789   10.1590 C   0  0  0  0  0  0  0  0  0  0  0  0
    4.2873   12.4256   10.7395 C   0  0  0  0  0  3  0  0  0  0  0  0
    4.4228   11.0603   10.5352 O   0  0  0  0  0  0  0  0  0  0  0  0
    3.7930   10.7550    9.3328 C   0  0  2  0  0  0  0  0  0  0  0  0
    2.4013   10.6718    9.4853 O   0  0  0  0  0  0  0  0  0  0  0  0
    4.2844    9.3955    8.8823 C   0  0  0  0  0  3  0  0  0  0  0  0
  1  2  1  0
  2  3  1  0
  3  4  1  0
  4  5  1  0
  5  6  1  6
  6  7  1  0
  5  8  1  0
  8  9  1  6
  9 10  1  0
  8 11  1  0
 11 12  1  0
 12 13  1  1
 12 14  1  0
 14 15  1  0
 15 16  1  0
 16 17  1  0
 17 18  1  0
 18 19  1  0
 19 20  1  0
 20 21  1  1
 20 22  1  0
 22 23  1  0
 23 24  1  0
 24 25  1  0
 25 26  1  0
 26 27  1  1
 26 28  1  0
 28  1  1  0
M  RAD  7   3   2   7   3  10   3  16   2  18   2  24   2  28   2
M  END
>  <docking_score>  (3) 
-2.2829999999999999

$$$$
