
     RDKit          3D

 31 31  0  0  0  0  0  0  0  0999 V2000
   18.2986   -3.0124   -8.7353 C   0  0  0  0  0  0  0  0  0  0  0  0
   19.0447   -3.0139   -7.4398 C   0  0  0  0  0  0  0  0  0  0  0  0
   20.4965   -2.6644   -7.7311 C   0  0  0  0  0  0  0  0  0  0  0  0
   18.4790   -2.1043   -6.3963 C   0  0  0  0  0  0  0  0  0  0  0  0
   17.2262   -1.4019   -6.8146 C   0  0  0  0  0  0  0  0  0  0  0  0
   16.6033   -0.5603   -5.7457 C   0  0  0  0  0  0  0  0  0  0  0  0
   15.1655   -0.9846   -5.4714 C   0  0  1  0  0  0  0  0  0  0  0  0
   14.7999   -2.1395   -6.4030 C   0  0  0  0  0  0  0  0  0  0  0  0
   15.0270   -1.5091   -4.0691 C   0  0  0  0  0  3  0  0  0  0  0  0
   15.4379   -2.9548   -4.0422 C   0  0  0  0  0  3  0  0  0  0  0  0
   16.1979   -3.3050   -2.7770 C   0  0  0  0  0  0  0  0  0  0  0  0
   17.4982   -3.9304   -3.1927 C   0  0  1  0  0  0  0  0  0  0  0  0
   18.6557   -3.0518   -2.7906 C   0  0  0  0  0  0  0  0  0  0  0  0
   17.6570   -5.3616   -2.7255 C   0  0  0  0  0  0  0  0  0  0  0  0
   17.9647   -6.2029   -3.9621 C   0  0  2  0  0  0  0  0  0  0  0  0
   16.6380   -6.5936   -4.5587 C   0  0  0  0  0  0  0  0  0  0  0  0
   18.8083   -7.3501   -3.5397 C   0  0  0  0  0  0  0  0  0  0  0  0
   19.8953   -7.7163   -4.4980 C   0  0  0  0  0  0  0  0  0  0  0  0
   20.7620   -6.5713   -4.9179 C   0  0  2  0  0  0  0  0  0  0  0  0
   20.0548   -5.2455   -4.9193 C   0  0  0  0  0  0  0  0  0  0  0  0
   21.2612   -6.7957   -6.2029 O   0  0  0  0  0  0  0  0  0  0  0  0
   20.2598   -6.9539   -7.1446 C   0  0  0  0  0  0  0  0  0  0  0  0
   19.8980   -8.4336   -7.2886 C   0  0  2  0  0  0  0  0  0  0  0  0
   21.1425   -9.1311   -7.7986 C   0  0  0  0  0  0  0  0  0  0  0  0
   18.8895   -8.5861   -8.2389 O   0  0  0  0  0  0  0  0  0  0  0  0
   17.8298   -7.7102   -8.0022 C   0  0  0  0  0  0  0  0  0  0  0  0
   17.8699   -7.3564   -6.5373 C   0  0  0  0  0  0  0  0  0  0  0  0
   16.6344   -6.6898   -6.0468 C   0  0  2  0  0  0  0  0  0  0  0  0
   16.3615   -5.4013   -6.6200 N   0  0  0  0  0  0  0  0  0  0  0  0
   14.9623   -5.4371   -7.0695 C   0  0  0  0  0  0  0  0  0  0  0  0
   14.0175   -6.0447   -5.6888 Cl  0  0  0  0  0  0  0  0  0  0  0  0
  1  2  1  0
  2  3  1  0
  2  4  1  0
  4  5  1  0
  5  6  1  0
  6  7  1  0
  7  8  1  6
  7  9  1  0
  9 10  1  0
 10 11  1  0
 11 12  1  0
 12 13  1  1
 12 14  1  0
 15 14  1  1
 15 16  1  0
 15 17  1  0
 17 18  1  0
 18 19  1  0
 19 20  1  6
 19 21  1  0
 21 22  1  0
 22 23  1  0
 23 24  1  6
 23 25  1  0
 25 26  1  0
 26 27  1  0
 27 28  1  0
 28 29  1  6
 29 30  1  0
 30 31  1  0
 28 16  1  0
M  RAD  2   9   2  10   2
M  END
>  <docking_score>  (1) 
-4.04

$$$$

     RDKit          3D

 31 31  0  0  0  0  0  0  0  0999 V2000
   20.4156   -4.5688   -2.4769 C   0  0  0  0  0  0  0  0  0  0  0  0
   19.8879   -3.2548   -1.9974 C   0  0  0  0  0  0  0  0  0  0  0  0
   20.6778   -2.8519   -0.7612 C   0  0  0  0  0  0  0  0  0  0  0  0
   19.9121   -2.1650   -3.0212 C   0  0  0  0  0  0  0  0  0  0  0  0
   18.5688   -1.5765   -3.3164 C   0  0  0  0  0  0  0  0  0  0  0  0
   17.5340   -1.8422   -2.2688 C   0  0  0  0  0  0  0  0  0  0  0  0
   16.2115   -2.2744   -2.8907 C   0  0  1  0  0  0  0  0  0  0  0  0
   15.2421   -1.0931   -2.8723 C   0  0  0  0  0  0  0  0  0  0  0  0
   16.4025   -2.6454   -4.3352 C   0  0  0  0  0  3  0  0  0  0  0  0
   15.0727   -2.5997   -5.0344 C   0  0  0  0  0  3  0  0  0  0  0  0
   15.1761   -1.9669   -6.4091 C   0  0  0  0  0  0  0  0  0  0  0  0
   15.8975   -2.9386   -7.2978 C   0  0  1  0  0  0  0  0  0  0  0  0
   15.9690   -2.4079   -8.7073 C   0  0  0  0  0  0  0  0  0  0  0  0
   17.2481   -3.3616   -6.7602 C   0  0  0  0  0  0  0  0  0  0  0  0
   17.3569   -4.8708   -6.9648 C   0  0  2  0  0  0  0  0  0  0  0  0
   17.7894   -5.0822   -8.3921 C   0  0  0  0  0  0  0  0  0  0  0  0
   16.0438   -5.4768   -6.6263 C   0  0  0  0  0  0  0  0  0  0  0  0
   16.1228   -6.7805   -5.8998 C   0  0  0  0  0  0  0  0  0  0  0  0
   17.0048   -6.7633   -4.6914 C   0  0  2  0  0  0  0  0  0  0  0  0
   18.1425   -5.7863   -4.7863 C   0  0  0  0  0  0  0  0  0  0  0  0
   17.5435   -8.0336   -4.4746 O   0  0  0  0  0  0  0  0  0  0  0  0
   18.2847   -8.4898   -5.5501 C   0  0  0  0  0  0  0  0  0  0  0  0
   17.3965   -9.2939   -6.5018 C   0  0  2  0  0  0  0  0  0  0  0  0
   16.9080  -10.4956   -5.7191 C   0  0  0  0  0  0  0  0  0  0  0  0
   18.1493   -9.7511   -7.5824 O   0  0  0  0  0  0  0  0  0  0  0  0
   18.8964   -8.7213   -8.1548 C   0  0  0  0  0  0  0  0  0  0  0  0
   18.2008   -7.4288   -7.8106 C   0  0  0  0  0  0  0  0  0  0  0  0
   18.6772   -6.2622   -8.6000 C   0  0  2  0  0  0  0  0  0  0  0  0
   20.0469   -5.8889   -8.3807 N   0  0  0  0  0  0  0  0  0  0  0  0
   20.5327   -6.7300   -7.2772 C   0  0  0  0  0  0  0  0  0  0  0  0
   21.3740   -5.6331   -6.1561 Cl  0  0  0  0  0  0  0  0  0  0  0  0
  1  2  1  0
  2  3  1  0
  2  4  1  0
  4  5  1  0
  5  6  1  0
  6  7  1  0
  7  8  1  6
  7  9  1  0
  9 10  1  0
 10 11  1  0
 11 12  1  0
 12 13  1  6
 12 14  1  0
 15 14  1  6
 15 16  1  0
 15 17  1  0
 17 18  1  0
 18 19  1  0
 19 20  1  6
 19 21  1  0
 21 22  1  0
 22 23  1  0
 23 24  1  1
 23 25  1  0
 25 26  1  0
 26 27  1  0
 27 28  1  0
 28 29  1  1
 29 30  1  0
 30 31  1  0
 28 16  1  0
M  RAD  2   9   2  10   2
M  END
>  <docking_score>  (2) 
-3.0089999999999999

$$$$
