
     RDKit          3D

 21 21  0  0  0  0  0  0  0  0999 V2000
   18.6506   -1.3631   -2.1995 C   0  0  0  0  0  0  0  0  0  0  0  0
   18.1096   -2.6589   -2.7537 C   0  0  0  0  0  0  0  0  0  0  0  0
   16.7207   -2.9572   -2.2514 C   0  0  0  0  0  0  0  0  0  0  0  0
   18.2369   -2.7600   -4.2381 C   0  0  0  0  0  0  0  0  0  0  0  0
   18.0369   -1.4532   -4.9488 C   0  0  0  0  0  0  0  0  0  0  0  0
   17.0696   -1.6455   -6.0839 C   0  0  0  0  0  0  0  0  0  0  0  0
   15.6358   -1.6679   -5.6094 C   0  0  1  0  0  0  0  0  0  0  0  0
   15.0619   -0.2902   -5.6321 C   0  0  0  0  0  0  0  0  0  0  0  0
   14.7965   -2.6585   -6.3775 C   0  0  0  0  0  3  0  0  0  0  0  0
   15.4638   -4.0000   -6.3265 C   0  0  1  0  0  0  0  0  0  0  0  0
   15.2324   -4.7075   -5.0170 C   0  0  0  0  0  0  0  0  0  0  0  0
   15.6428   -6.1413   -5.0816 C   0  0  2  0  0  0  0  0  0  0  0  0
   14.6162   -7.0759   -4.5318 C   0  0  0  0  0  0  0  0  0  0  0  0
   17.0290   -6.4033   -4.5823 C   0  0  0  0  0  3  0  0  0  0  0  0
   17.8916   -6.8421   -5.7624 C   0  0  0  0  0  0  0  0  0  0  0  0
   18.3939   -5.6103   -6.4456 C   0  0  1  0  0  0  0  0  0  0  0  0
   19.7943   -5.7367   -6.8426 N   0  0  0  0  0  0  0  0  0  0  0  0
   17.5492   -5.1775   -7.6063 C   0  0  0  0  0  3  0  0  0  0  0  0
   16.2210   -5.8825   -7.6706 C   0  0  0  0  0  0  0  0  0  0  0  0
   15.0682   -4.9079   -7.4638 C   0  0  2  0  0  0  0  0  0  0  0  0
   14.7719   -4.1593   -8.7244 C   0  0  0  0  0  1  0  0  0  0  0  0
  1  2  1  0
  2  3  1  0
  2  4  1  0
  4  5  1  0
  5  6  1  0
  6  7  1  0
  7  8  1  6
  7  9  1  0
 10  9  1  1
 10 11  1  0
 11 12  1  0
 12 13  1  1
 12 14  1  0
 14 15  1  0
 15 16  1  0
 16 17  1  6
 16 18  1  0
 18 19  1  0
 19 20  1  0
 20 21  1  6
 20 10  1  0
M  RAD  4   9   2  14   2  18   2  21   2
M  END
>  <docking_score>  (1) 
-4.4619999999999997

$$$$

     RDKit          3D

 21 21  0  0  0  0  0  0  0  0999 V2000
   15.4727   -2.2311   -7.6153 C   0  0  0  0  0  0  0  0  0  0  0  0
   15.3031   -2.0299   -6.1288 C   0  0  0  0  0  0  0  0  0  0  0  0
   14.9331   -0.6103   -5.7849 C   0  0  0  0  0  0  0  0  0  0  0  0
   14.4071   -3.0446   -5.4984 C   0  0  0  0  0  0  0  0  0  0  0  0
   15.1431   -4.2101   -4.9045 C   0  0  0  0  0  0  0  0  0  0  0  0
   16.4594   -3.7391   -4.3507 C   0  0  0  0  0  0  0  0  0  0  0  0
   16.3543   -3.3451   -2.8964 C   0  0  1  0  0  0  0  0  0  0  0  0
   16.4951   -4.5476   -2.0234 C   0  0  0  0  0  0  0  0  0  0  0  0
   17.3225   -2.2472   -2.5317 C   0  0  0  0  0  3  0  0  0  0  0  0
   18.4115   -2.2011   -3.5609 C   0  0  1  0  0  0  0  0  0  0  0  0
   18.2947   -1.0041   -4.4679 C   0  0  0  0  0  0  0  0  0  0  0  0
   19.5273   -0.8066   -5.2865 C   0  0  2  0  0  0  0  0  0  0  0  0
   20.0244    0.6013   -5.2771 C   0  0  0  0  0  0  0  0  0  0  0  0
   19.4580   -1.4149   -6.6520 C   0  0  0  0  0  3  0  0  0  0  0  0
   20.4579   -2.5660   -6.7183 C   0  0  0  0  0  0  0  0  0  0  0  0
   19.7906   -3.7848   -6.1653 C   0  0  1  0  0  0  0  0  0  0  0  0
   20.0955   -4.9795   -6.9493 N   0  0  0  0  0  0  0  0  0  0  0  0
   20.0701   -4.0178   -4.7108 C   0  0  0  0  0  3  0  0  0  0  0  0
   20.7128   -2.8379   -4.0324 C   0  0  0  0  0  0  0  0  0  0  0  0
   19.7971   -2.2472   -2.9674 C   0  0  2  0  0  0  0  0  0  0  0  0
   19.8594   -3.0507   -1.7073 C   0  0  0  0  0  1  0  0  0  0  0  0
  1  2  1  0
  2  3  1  0
  2  4  1  0
  4  5  1  0
  5  6  1  0
  6  7  1  0
  7  8  1  1
  7  9  1  0
 10  9  1  1
 10 11  1  0
 11 12  1  0
 12 13  1  6
 12 14  1  0
 14 15  1  0
 15 16  1  0
 16 17  1  6
 16 18  1  0
 18 19  1  0
 19 20  1  0
 20 21  1  1
 20 10  1  0
M  RAD  4   9   2  14   2  18   2  21   2
M  END
>  <docking_score>  (2) 
-4.21

$$$$

     RDKit          3D

 21 21  0  0  0  0  0  0  0  0999 V2000
   17.7899   -8.4835   -5.3486 C   0  0  0  0  0  0  0  0  0  0  0  0
   17.7927   -7.0646   -4.8332 C   0  0  0  0  0  0  0  0  0  0  0  0
   18.9537   -6.7961   -3.9111 C   0  0  0  0  0  0  0  0  0  0  0  0
   17.6494   -6.0472   -5.9168 C   0  0  0  0  0  0  0  0  0  0  0  0
   16.2847   -6.0220   -6.5410 C   0  0  0  0  0  0  0  0  0  0  0  0
   16.2404   -4.9563   -7.6009 C   0  0  0  0  0  0  0  0  0  0  0  0
   15.0261   -4.0688   -7.4622 C   0  0  1  0  0  0  0  0  0  0  0  0
   14.1781   -4.5269   -6.3226 C   0  0  0  0  0  0  0  0  0  0  0  0
   15.3951   -2.6096   -7.3606 C   0  0  0  0  0  3  0  0  0  0  0  0
   16.1563   -2.3907   -6.0878 C   0  0  1  0  0  0  0  0  0  0  0  0
   17.6318   -2.2025   -6.3257 C   0  0  0  0  0  0  0  0  0  0  0  0
   18.3300   -1.6988   -5.1063 C   0  0  2  0  0  0  0  0  0  0  0  0
   19.2359   -0.5434   -5.3780 C   0  0  0  0  0  0  0  0  0  0  0  0
   18.9530   -2.7731   -4.2712 C   0  0  0  0  0  3  0  0  0  0  0  0
   18.2043   -2.8467   -2.9433 C   0  0  0  0  0  0  0  0  0  0  0  0
   17.0085   -3.7231   -3.1397 C   0  0  1  0  0  0  0  0  0  0  0  0
   16.7942   -4.6194   -2.0059 N   0  0  0  0  0  0  0  0  0  0  0  0
   15.7546   -2.9682   -3.4651 C   0  0  0  0  0  3  0  0  0  0  0  0
   16.0032   -1.5263   -3.8177 C   0  0  0  0  0  0  0  0  0  0  0  0
   15.6300   -1.2401   -5.2670 C   0  0  2  0  0  0  0  0  0  0  0  0
   14.1523   -1.0571   -5.4096 C   0  0  0  0  0  1  0  0  0  0  0  0
  1  2  1  0
  2  3  1  0
  2  4  1  0
  4  5  1  0
  5  6  1  0
  6  7  1  0
  7  8  1  1
  7  9  1  0
 10  9  1  6
 10 11  1  0
 11 12  1  0
 12 13  1  6
 12 14  1  0
 14 15  1  0
 15 16  1  0
 16 17  1  1
 16 18  1  0
 18 19  1  0
 19 20  1  0
 20 21  1  1
 20 10  1  0
M  RAD  4   9   2  14   2  18   2  21   2
M  END
>  <docking_score>  (3) 
-4.1349999999999998

$$$$
