
     RDKit          3D

 22 24  0  0  0  0  0  0  0  0999 V2000
   14.1124   -0.6304   -5.0986 C   0  0  0  0  0  0  0  0  0  0  0  0
   15.4614   -1.0770   -5.3634 N   0  0  0  0  0  0  0  0  0  0  0  0
   15.3812   -2.0438   -6.4614 C   0  0  2  0  0  0  0  0  0  0  0  0
   14.7797   -3.2527   -5.7734 C   0  0  0  0  0  0  0  0  0  0  0  0
   15.0699   -3.0669   -4.2850 C   0  0  0  0  0  0  0  0  0  0  0  0
   15.9899   -1.8725   -4.2586 C   0  0  1  0  0  0  0  0  0  0  0  0
   17.4095   -2.1969   -4.5735 C   0  0  1  0  0  0  0  0  0  0  0  0
   18.1061   -2.9887   -3.5113 C   0  0  1  0  0  0  0  0  0  0  0  0
   19.4892   -2.8392   -3.7244 O   0  0  0  0  0  0  0  0  0  0  0  0
   17.8301   -2.4898   -2.1174 C   0  0  0  0  0  0  0  0  0  0  0  0
   16.7263   -3.1763   -1.6457 F   0  0  0  0  0  0  0  0  0  0  0  0
   18.8861   -2.8343   -1.2632 F   0  0  0  0  0  0  0  0  0  0  0  0
   17.5937   -1.1513   -2.0537 F   0  0  0  0  0  0  0  0  0  0  0  0
   17.5991   -2.8637   -5.8358 N   0  0  0  0  0  3  0  0  0  0  0  0
   17.4932   -4.2679   -5.7371 C   0  0  0  0  0  0  0  0  0  0  0  0
   17.6394   -4.9853   -4.5798 C   0  0  0  0  0  0  0  0  0  0  0  0
   17.5258   -6.3607   -4.5373 C   0  0  0  0  0  0  0  0  0  0  0  0
   17.2543   -7.0546   -5.6987 C   0  0  0  0  0  0  0  0  0  0  0  0
   17.0949   -8.8121   -5.7228 Cl  0  0  0  0  0  0  0  0  0  0  0  0
   17.1059   -6.3312   -6.8705 C   0  0  0  0  0  0  0  0  0  0  0  0
   17.2220   -4.9708   -6.8918 C   0  0  0  0  0  0  0  0  0  0  0  0
   16.8148   -2.3077   -6.8991 C   0  0  0  0  0  0  0  0  0  0  0  0
  1  2  1  0
  2  3  1  0
  3  4  1  1
  4  5  1  0
  6  5  1  6
  6  7  1  0
  7  8  1  0
  8  9  1  6
  8 10  1  0
 10 11  1  0
 10 12  1  0
 10 13  1  0
  7 14  1  6
 14 15  1  0
 15 16  2  0
 16 17  1  0
 17 18  2  0
 18 19  1  0
 18 20  1  0
 20 21  2  0
 14 22  1  0
  6  2  1  0
 22  3  1  0
 21 15  1  0
M  CHG  1  14   1
M  RAD  1  14   2
M  END
>  <docking_score>  (1) 
-4.9930000000000003

$$$$

     RDKit          3D

 22 24  0  0  0  0  0  0  0  0999 V2000
   21.1597   -2.2318   -1.3441 C   0  0  0  0  0  0  0  0  0  0  0  0
   20.7017   -2.4914   -2.6903 N   0  0  0  0  0  0  0  0  0  0  0  0
   20.0917   -1.2518   -3.1781 C   0  0  2  0  0  0  0  0  0  0  0  0
   18.7888   -1.2163   -2.4047 C   0  0  0  0  0  0  0  0  0  0  0  0
   18.5258   -2.6582   -1.9736 C   0  0  0  0  0  0  0  0  0  0  0  0
   19.5892   -3.4373   -2.7055 C   0  0  1  0  0  0  0  0  0  0  0  0
   19.2566   -3.7214   -4.1298 C   0  0  1  0  0  0  0  0  0  0  0  0
   18.1465   -4.7084   -4.3136 C   0  0  1  0  0  0  0  0  0  0  0  0
   18.1633   -5.1027   -5.6645 O   0  0  0  0  0  0  0  0  0  0  0  0
   18.3218   -5.9624   -3.4983 C   0  0  0  0  0  0  0  0  0  0  0  0
   19.6601   -6.0505   -3.1617 F   0  0  0  0  0  0  0  0  0  0  0  0
   17.6307   -5.8500   -2.2845 F   0  0  0  0  0  0  0  0  0  0  0  0
   17.9421   -7.0948   -4.1503 F   0  0  0  0  0  0  0  0  0  0  0  0
   18.9587   -2.5506   -4.9137 N   0  0  0  0  0  3  0  0  0  0  0  0
   17.5960   -2.1858   -4.8607 C   0  0  0  0  0  0  0  0  0  0  0  0
   16.6569   -2.7779   -4.0590 C   0  0  0  0  0  0  0  0  0  0  0  0
   15.3341   -2.3825   -4.0450 C   0  0  0  0  0  0  0  0  0  0  0  0
   14.9263   -1.3508   -4.8657 C   0  0  0  0  0  0  0  0  0  0  0  0
   13.2533   -0.7903   -4.9025 Cl  0  0  0  0  0  0  0  0  0  0  0  0
   15.8744   -0.7503   -5.6774 C   0  0  0  0  0  0  0  0  0  0  0  0
   17.1782   -1.1560   -5.6768 C   0  0  0  0  0  0  0  0  0  0  0  0
   19.8503   -1.4557   -4.6670 C   0  0  0  0  0  0  0  0  0  0  0  0
  1  2  1  0
  2  3  1  0
  3  4  1  1
  4  5  1  0
  6  5  1  6
  6  7  1  0
  7  8  1  0
  8  9  1  6
  8 10  1  0
 10 11  1  0
 10 12  1  0
 10 13  1  0
  7 14  1  1
 14 15  1  0
 15 16  2  0
 16 17  1  0
 17 18  2  0
 18 19  1  0
 18 20  1  0
 20 21  2  0
 14 22  1  0
  6  2  1  0
 22  3  1  0
 21 15  1  0
M  CHG  1  14   1
M  RAD  1  14   2
M  END
>  <docking_score>  (2) 
-4.9180000000000001

$$$$

     RDKit          3D

 22 24  0  0  0  0  0  0  0  0999 V2000
   14.4859   -1.0644   -4.4678 C   0  0  0  0  0  0  0  0  0  0  0  0
   15.8255   -1.4573   -4.8428 N   0  0  0  0  0  0  0  0  0  0  0  0
   15.7040   -2.2908   -6.0416 C   0  0  2  0  0  0  0  0  0  0  0  0
   15.1463   -3.5803   -5.4734 C   0  0  0  0  0  0  0  0  0  0  0  0
   15.5028   -3.5646   -3.9879 C   0  0  0  0  0  0  0  0  0  0  0  0
   16.4117   -2.3680   -3.8632 C   0  0  1  0  0  0  0  0  0  0  0  0
   17.8184   -2.6326   -4.2768 C   0  0  1  0  0  0  0  0  0  0  0  0
   18.5705   -3.5322   -3.3465 C   0  0  1  0  0  0  0  0  0  0  0  0
   19.9389   -3.3741   -3.6349 O   0  0  0  0  0  0  0  0  0  0  0  0
   18.3934   -3.1723   -1.8950 C   0  0  0  0  0  0  0  0  0  0  0  0
   19.5428   -3.5606   -1.2316 F   0  0  0  0  0  0  0  0  0  0  0  0
   18.3207   -1.7807   -1.7478 F   0  0  0  0  0  0  0  0  0  0  0  0
   17.3130   -3.7616   -1.3145 F   0  0  0  0  0  0  0  0  0  0  0  0
   17.9560   -3.1451   -5.6156 N   0  0  0  0  0  3  0  0  0  0  0  0
   17.8680   -4.5527   -5.6770 C   0  0  0  0  0  0  0  0  0  0  0  0
   17.7062   -5.3757   -4.5945 C   0  0  0  0  0  0  0  0  0  0  0  0
   17.6256   -6.7492   -4.7092 C   0  0  0  0  0  0  0  0  0  0  0  0
   17.7098   -7.3313   -5.9575 C   0  0  0  0  0  0  0  0  0  0  0  0
   17.6150   -9.0791   -6.1829 Cl  0  0  0  0  0  0  0  0  0  0  0  0
   17.8733   -6.5010   -7.0539 C   0  0  0  0  0  0  0  0  0  0  0  0
   17.9508   -5.1443   -6.9197 C   0  0  0  0  0  0  0  0  0  0  0  0
   17.1184   -2.4809   -6.5706 C   0  0  0  0  0  0  0  0  0  0  0  0
  1  2  1  0
  2  3  1  0
  3  4  1  1
  4  5  1  0
  6  5  1  6
  6  7  1  0
  7  8  1  0
  8  9  1  6
  8 10  1  0
 10 11  1  0
 10 12  1  0
 10 13  1  0
  7 14  1  6
 14 15  1  0
 15 16  2  0
 16 17  1  0
 17 18  2  0
 18 19  1  0
 18 20  1  0
 20 21  2  0
 14 22  1  0
  6  2  1  0
 22  3  1  0
 21 15  1  0
M  CHG  1  14   1
M  RAD  1  14   2
M  END
>  <docking_score>  (3) 
-4.798

$$$$
