
     RDKit          3D

 15 15  0  0  0  0  0  0  0  0999 V2000
   16.1668   -1.8410   -2.5929 C   0  0  0  0  0  0  0  0  0  0  0  0
   15.5866   -2.1745   -3.9299 C   0  0  1  0  0  0  0  0  0  0  0  0
   16.3242   -1.4663   -5.0236 C   0  0  0  0  0  0  0  0  0  0  0  0
   16.0352   -1.9394   -6.4049 C   0  0  2  0  0  0  0  0  0  0  0  0
   14.8245   -1.5148   -6.9083 O   0  0  0  0  0  0  0  0  0  0  0  0
   16.0467   -3.4603   -6.4763 C   0  0  2  0  0  0  0  0  0  0  0  0
   15.8905   -3.9223   -7.7500 O   0  0  0  0  0  0  0  0  0  0  0  0
   14.9888   -3.9187   -5.4957 C   0  0  1  0  0  0  0  0  0  0  0  0
   14.6120   -5.2389   -5.6897 O   0  0  0  0  0  0  0  0  0  0  0  0
   15.5464   -3.6654   -4.1124 C   0  0  1  0  0  0  0  0  0  0  0  0
   16.9035   -4.1639   -4.1008 N   0  0  0  0  0  0  0  0  0  0  0  0
   17.1094   -5.2987   -3.2339 C   0  0  0  0  0  3  0  0  0  0  0  0
   18.2920   -4.9719   -2.3855 C   0  0  0  0  0  0  0  0  0  0  0  0
   19.1258   -3.9833   -2.5856 C   0  0  0  0  0  0  0  0  0  0  0  0
   20.2563   -3.8105   -1.6260 C   0  0  0  0  0  2  0  0  0  0  0  0
  2  1  1  1
  2  3  1  0
  3  4  1  0
  4  5  1  1
  4  6  1  0
  6  7  1  6
  6  8  1  0
  8  9  1  1
  8 10  1  0
 10 11  1  6
 11 12  1  0
 12 13  1  0
 13 14  2  3
 14 15  1  0
 10  2  1  0
M  RAD  2  12   2  15   3
M  END
>  <docking_score>  (1) 
-4.0149999999999997

$$$$

     RDKit          3D

 15 15  0  0  0  0  0  0  0  0999 V2000
   14.7998   -1.1453   -3.9301 C   0  0  0  0  0  0  0  0  0  0  0  0
   14.9405   -2.4398   -4.6650 C   0  0  1  0  0  0  0  0  0  0  0  0
   15.4923   -2.2164   -6.0389 C   0  0  0  0  0  0  0  0  0  0  0  0
   15.9503   -3.4386   -6.7542 C   0  0  2  0  0  0  0  0  0  0  0  0
   14.9305   -4.2157   -7.2598 O   0  0  0  0  0  0  0  0  0  0  0  0
   16.7859   -4.3262   -5.8418 C   0  0  2  0  0  0  0  0  0  0  0  0
   17.3088   -5.4011   -6.4986 O   0  0  0  0  0  0  0  0  0  0  0  0
   15.8853   -4.6666   -4.6740 C   0  0  1  0  0  0  0  0  0  0  0  0
   16.3474   -5.7451   -3.9353 O   0  0  0  0  0  0  0  0  0  0  0  0
   15.7545   -3.4046   -3.8500 C   0  0  1  0  0  0  0  0  0  0  0  0
   17.0838   -2.8591   -3.6898 N   0  0  0  0  0  0  0  0  0  0  0  0
   17.5849   -2.9096   -2.3377 C   0  0  0  0  0  3  0  0  0  0  0  0
   18.4624   -1.7152   -2.1686 C   0  0  0  0  0  0  0  0  0  0  0  0
   19.6382   -1.7063   -1.5944 C   0  0  0  0  0  0  0  0  0  0  0  0
   20.3747   -0.4100   -1.5178 C   0  0  0  0  0  2  0  0  0  0  0  0
  2  1  1  1
  2  3  1  0
  3  4  1  0
  4  5  1  1
  4  6  1  0
  6  7  1  6
  6  8  1  0
  8  9  1  1
  8 10  1  0
 10 11  1  6
 11 12  1  0
 12 13  1  0
 13 14  2  3
 14 15  1  0
 10  2  1  0
M  RAD  2  12   2  15   3
M  END
>  <docking_score>  (2) 
-3.9359999999999999

$$$$

     RDKit          3D

 15 15  0  0  0  0  0  0  0  0999 V2000
   16.9358   -3.7814   -7.2022 C   0  0  0  0  0  0  0  0  0  0  0  0
   16.5760   -2.6049   -6.3524 C   0  0  1  0  0  0  0  0  0  0  0  0
   15.2937   -1.9850   -6.8143 C   0  0  0  0  0  0  0  0  0  0  0  0
   14.6833   -0.9995   -5.8809 C   0  0  2  0  0  0  0  0  0  0  0  0
   15.3054    0.2302   -5.8677 O   0  0  0  0  0  0  0  0  0  0  0  0
   14.6874   -1.5241   -4.4514 C   0  0  2  0  0  0  0  0  0  0  0  0
   14.0389   -0.6895   -3.5894 O   0  0  0  0  0  0  0  0  0  0  0  0
   16.1415   -1.7815   -4.1198 C   0  0  1  0  0  0  0  0  0  0  0  0
   16.3668   -1.9155   -2.7583 O   0  0  0  0  0  0  0  0  0  0  0  0
   16.5508   -3.0080   -4.9052 C   0  0  1  0  0  0  0  0  0  0  0  0
   15.5121   -3.9974   -4.7246 N   0  0  0  0  0  0  0  0  0  0  0  0
   15.9220   -5.1534   -3.9648 C   0  0  0  0  0  3  0  0  0  0  0  0
   17.4014   -5.0497   -3.8049 C   0  0  0  0  0  0  0  0  0  0  0  0
   18.1579   -5.8834   -3.1377 C   0  0  0  0  0  0  0  0  0  0  0  0
   19.6260   -5.6169   -3.0882 C   0  0  0  0  0  2  0  0  0  0  0  0
  2  1  1  6
  2  3  1  0
  3  4  1  0
  4  5  1  1
  4  6  1  0
  6  7  1  1
  6  8  1  0
  8  9  1  1
  8 10  1  0
 10 11  1  6
 11 12  1  0
 12 13  1  0
 13 14  2  3
 14 15  1  0
 10  2  1  0
M  RAD  2  12   2  15   3
M  END
>  <docking_score>  (3) 
-3.8490000000000002

$$$$
