
     RDKit          3D

 25 24  0  0  0  0  0  0  0  0999 V2000
   18.1615   -8.7937   -7.7262 C   0  0  0  0  0  0  0  0  0  0  0  0
   18.3177   -7.3880   -7.1514 C   0  0  0  0  0  3  0  0  0  0  0  0
   17.3507   -6.4874   -7.9279 C   0  0  0  0  0  0  0  0  0  0  0  0
   16.0635   -6.2877   -7.1702 C   0  0  2  0  0  0  0  0  0  0  0  0
   15.3495   -5.1945   -7.6210 O   0  0  0  0  0  0  0  0  0  0  0  0
   16.3329   -6.2503   -5.6823 C   0  0  2  0  0  0  0  0  0  0  0  0
   15.4354   -7.1249   -5.0692 O   0  0  0  0  0  0  0  0  0  0  0  0
   16.1019   -4.8467   -5.1548 C   0  0  1  0  0  0  0  0  0  0  0  0
   15.7290   -4.9675   -3.8104 O   0  0  0  0  0  0  0  0  0  0  0  0
   17.3027   -4.1354   -5.1938 O   0  0  0  0  0  0  0  0  0  0  0  0
   17.5115   -3.5435   -3.9780 C   0  0  2  0  0  0  0  0  0  0  0  0
   17.4723   -2.0582   -3.9592 C   0  0  0  0  0  3  0  0  0  0  0  0
   16.3664   -1.4439   -4.7805 C   0  0  0  0  0  0  0  0  0  0  0  0
   15.1043   -1.4873   -3.9371 C   0  0  1  0  0  0  0  0  0  0  0  0
   15.4223   -1.2083   -2.5984 O   0  0  0  0  0  0  0  0  0  0  0  0
   14.1425   -0.4968   -4.4256 N   0  0  0  0  0  0  0  0  0  0  0  0
   13.0666   -1.1922   -4.8808 O   0  0  0  0  0  0  0  0  0  0  0  0
   14.7477    0.2503   -5.4960 C   0  0  0  0  0  2  0  0  0  0  0  0
   18.6043   -4.1468   -3.1712 C   0  0  0  0  0  0  0  0  0  0  0  0
   18.7783   -3.4813   -1.9387 O   0  0  0  0  0  0  0  0  0  0  0  0
   20.1201   -3.7649   -1.5913 C   0  0  2  0  0  0  0  0  0  0  0  0
   20.1929   -3.4712   -0.2104 O   0  0  0  0  0  0  0  0  0  0  0  0
   20.9310   -2.6547   -2.2728 C   0  0  0  0  0  3  0  0  0  0  0  0
   21.0397   -1.5503   -1.4074 O   0  0  0  0  0  0  0  0  0  0  0  0
   20.1987   -0.5898   -1.7830 O   0  0  0  0  0  0  0  0  0  0  0  0
  1  2  1  0
  2  3  1  0
  3  4  1  0
  4  5  1  6
  4  6  1  0
  6  7  1  1
  6  8  1  0
  8  9  1  1
  8 10  1  0
 10 11  1  0
 11 12  1  6
 12 13  1  0
 13 14  1  0
 14 15  1  1
 14 16  1  0
 16 17  1  0
 16 18  1  0
 11 19  1  0
 19 20  1  0
 20 21  1  0
 21 22  1  1
 21 23  1  0
 23 24  1  0
 24 25  1  0
M  RAD  4   2   2  12   2  18   3  23   2
M  END
>  <docking_score>  (1) 
-3.2599999999999998

$$$$

     RDKit          3D

 25 24  0  0  0  0  0  0  0  0999 V2000
   20.5043   -0.4123   -1.2470 C   0  0  0  0  0  0  0  0  0  0  0  0
   19.7963   -0.6213   -2.5834 C   0  0  0  0  0  3  0  0  0  0  0  0
   19.8785   -2.1202   -2.8928 C   0  0  0  0  0  0  0  0  0  0  0  0
   18.5191   -2.7668   -2.8246 C   0  0  2  0  0  0  0  0  0  0  0  0
   18.2915   -3.3910   -1.6135 O   0  0  0  0  0  0  0  0  0  0  0  0
   18.3140   -3.6800   -4.0127 C   0  0  2  0  0  0  0  0  0  0  0  0
   18.7284   -4.9585   -3.6383 O   0  0  0  0  0  0  0  0  0  0  0  0
   19.1594   -3.2023   -5.1783 C   0  0  1  0  0  0  0  0  0  0  0  0
   19.6010   -4.3418   -5.8620 O   0  0  0  0  0  0  0  0  0  0  0  0
   18.3606   -2.4695   -6.0582 O   0  0  0  0  0  0  0  0  0  0  0  0
   17.2044   -3.1618   -6.2946 C   0  0  2  0  0  0  0  0  0  0  0  0
   17.1507   -3.9291   -7.5661 C   0  0  0  0  0  3  0  0  0  0  0  0
   15.7630   -4.3117   -8.0162 C   0  0  0  0  0  0  0  0  0  0  0  0
   15.4988   -5.7184   -7.5087 C   0  0  1  0  0  0  0  0  0  0  0  0
   16.6914   -6.4588   -7.5303 O   0  0  0  0  0  0  0  0  0  0  0  0
   14.9824   -5.6669   -6.1393 N   0  0  0  0  0  0  0  0  0  0  0  0
   15.3358   -6.8386   -5.5470 O   0  0  0  0  0  0  0  0  0  0  0  0
   13.5501   -5.5396   -6.1869 C   0  0  0  0  0  2  0  0  0  0  0  0
   15.9577   -2.4248   -5.9602 C   0  0  0  0  0  0  0  0  0  0  0  0
   16.1793   -1.0347   -5.8563 O   0  0  0  0  0  0  0  0  0  0  0  0
   14.8933   -0.4756   -6.0434 C   0  0  2  0  0  0  0  0  0  0  0  0
   15.0308    0.8662   -5.6199 O   0  0  0  0  0  0  0  0  0  0  0  0
   14.0294   -1.1420   -4.9643 C   0  0  0  0  0  3  0  0  0  0  0  0
   13.1623   -0.1889   -4.3985 O   0  0  0  0  0  0  0  0  0  0  0  0
   11.9520   -0.7152   -4.2279 O   0  0  0  0  0  0  0  0  0  0  0  0
  1  2  1  0
  2  3  1  0
  3  4  1  0
  4  5  1  1
  4  6  1  0
  6  7  1  1
  6  8  1  0
  8  9  1  6
  8 10  1  0
 10 11  1  0
 11 12  1  6
 12 13  1  0
 13 14  1  0
 14 15  1  1
 14 16  1  0
 16 17  1  0
 16 18  1  0
 11 19  1  0
 19 20  1  0
 20 21  1  0
 21 22  1  1
 21 23  1  0
 23 24  1  0
 24 25  1  0
M  RAD  4   2   2  12   2  18   3  23   2
M  END
>  <docking_score>  (2) 
-2.8420000000000001

$$$$

     RDKit          3D

 25 24  0  0  0  0  0  0  0  0999 V2000
   20.2611   -2.4650   -1.8207 C   0  0  0  0  0  0  0  0  0  0  0  0
   20.4132   -2.2283   -3.3212 C   0  0  0  0  0  3  0  0  0  0  0  0
   19.5375   -1.0181   -3.6646 C   0  0  0  0  0  0  0  0  0  0  0  0
   19.6088   -0.6926   -5.1342 C   0  0  2  0  0  0  0  0  0  0  0  0
   18.3621   -0.4751   -5.6879 O   0  0  0  0  0  0  0  0  0  0  0  0
   20.4091   -1.7474   -5.8654 C   0  0  2  0  0  0  0  0  0  0  0  0
   21.3804   -1.0908   -6.6216 O   0  0  0  0  0  0  0  0  0  0  0  0
   19.4987   -2.5301   -6.7928 C   0  0  1  0  0  0  0  0  0  0  0  0
   20.1538   -2.6301   -8.0264 O   0  0  0  0  0  0  0  0  0  0  0  0
   19.3390   -3.8258   -6.2975 O   0  0  0  0  0  0  0  0  0  0  0  0
   18.0047   -4.1246   -6.2491 C   0  0  2  0  0  0  0  0  0  0  0  0
   17.2838   -3.6982   -5.0217 C   0  0  0  0  0  3  0  0  0  0  0  0
   17.4622   -4.6105   -3.8339 C   0  0  0  0  0  0  0  0  0  0  0  0
   16.3694   -4.2675   -2.8367 C   0  0  1  0  0  0  0  0  0  0  0  0
   16.0973   -5.3857   -2.0328 O   0  0  0  0  0  0  0  0  0  0  0  0
   16.7977   -3.1518   -1.9901 N   0  0  0  0  0  0  0  0  0  0  0  0
   16.3183   -3.4047   -0.7432 O   0  0  0  0  0  0  0  0  0  0  0  0
   16.2350   -1.9329   -2.5074 C   0  0  0  0  0  2  0  0  0  0  0  0
   17.6530   -5.4842   -6.7360 C   0  0  0  0  0  0  0  0  0  0  0  0
   18.7732   -6.1604   -7.2653 O   0  0  0  0  0  0  0  0  0  0  0  0
   18.9667   -7.2392   -6.3707 C   0  0  2  0  0  0  0  0  0  0  0  0
   19.7429   -8.1659   -7.1038 O   0  0  0  0  0  0  0  0  0  0  0  0
   17.5818   -7.8899   -6.2560 C   0  0  0  0  0  3  0  0  0  0  0  0
   17.6970   -9.1347   -5.6100 O   0  0  0  0  0  0  0  0  0  0  0  0
   16.4899   -9.6125   -5.3177 O   0  0  0  0  0  0  0  0  0  0  0  0
  1  2  1  0
  2  3  1  0
  3  4  1  0
  4  5  1  6
  4  6  1  0
  6  7  1  6
  6  8  1  0
  8  9  1  6
  8 10  1  0
 10 11  1  0
 11 12  1  1
 12 13  1  0
 13 14  1  0
 14 15  1  1
 14 16  1  0
 16 17  1  0
 16 18  1  0
 11 19  1  0
 19 20  1  0
 20 21  1  0
 21 22  1  6
 21 23  1  0
 23 24  1  0
 24 25  1  0
M  RAD  4   2   2  12   2  18   3  23   2
M  END
>  <docking_score>  (3) 
-2.548

$$$$
