
     RDKit          3D

 38 37  0  0  0  0  0  0  0  0999 V2000
   16.8884  -10.0839   -6.5769 O   0  0  0  0  0  0  0  0  0  0  0  0
   18.0649   -9.3781   -6.7445 C   0  0  0  0  0  0  0  0  0  0  0  0
   17.7828   -7.9095   -6.6600 C   0  0  0  0  0  3  0  0  0  0  0  0
   16.8173   -7.6961   -5.5933 N   0  0  0  0  0  0  0  0  0  0  0  0
   15.9028   -6.6185   -5.9169 C   0  0  1  0  0  0  0  0  0  0  0  0
   14.6550   -6.8231   -5.0825 C   0  0  0  0  0  0  0  0  0  0  0  0
   15.0017   -6.8166   -3.7210 O   0  0  0  0  0  0  0  0  0  0  0  0
   16.5698   -5.3158   -5.5100 C   0  0  1  0  0  0  0  0  0  0  0  0
   17.9391   -5.3915   -5.6528 O   0  0  0  0  0  0  0  0  0  0  0  0
   15.9751   -4.2063   -6.3383 C   0  0  2  0  0  0  0  0  0  0  0  0
   14.6788   -4.5268   -6.7514 O   0  0  0  0  0  0  0  0  0  0  0  0
   16.8751   -3.9841   -7.5478 C   0  0  0  0  0  3  0  0  0  0  0  0
   17.3601   -2.5748   -7.5016 C   0  0  1  0  0  0  0  0  0  0  0  0
   17.6724   -1.9651   -8.7400 N   0  0  0  0  0  0  0  0  0  0  0  0
   16.5837   -1.7155   -6.5530 C   0  0  0  0  0  0  0  0  0  0  0  0
   15.2138   -1.8900   -6.6436 O   0  0  0  0  0  0  0  0  0  0  0  0
   14.5401   -0.7815   -6.1743 C   0  0  1  0  0  0  0  0  0  0  0  0
   13.6954   -0.3082   -7.2645 N   0  0  0  0  0  0  0  0  0  0  0  0
   13.6697   -1.2523   -5.1759 O   0  0  0  0  0  0  0  0  0  0  0  0
   13.3469   -0.3019   -4.2851 N   0  0  0  0  0  0  0  0  0  0  0  0
   14.4311   -0.2246   -3.3781 N   0  0  0  0  0  0  0  0  0  0  0  0
   14.9571   -1.5188   -3.0411 C   0  0  0  0  0  3  0  0  0  0  0  0
   16.3399   -1.5286   -2.9856 O   0  0  0  0  0  0  0  0  0  0  0  0
   16.8488   -2.5770   -2.2208 C   0  0  0  0  0  3  0  0  0  0  0  0
   18.2294   -2.4862   -2.0612 O   0  0  0  0  0  0  0  0  0  0  0  0
   18.8631   -3.3775   -2.9125 C   0  0  0  0  0  0  0  0  0  0  0  0
   19.3486   -2.7244   -4.0406 O   0  0  0  0  0  1  0  0  0  0  0  0
   12.2580   -0.7646   -3.5377 N   0  0  0  0  0  0  0  0  0  0  0  0
   11.0895   -0.2417   -4.1134 N   0  0  0  0  0  0  0  0  0  0  0  0
   10.0659   -1.0989   -4.0220 O   0  0  0  0  0  0  0  0  0  0  0  0
    8.9484   -0.4193   -4.0866 O   0  0  0  0  0  0  0  0  0  0  0  0
    8.4385   -0.3823   -5.2904 O   0  0  0  0  0  0  0  0  0  0  0  0
    7.0572   -0.5361   -5.1670 C   0  0  1  0  0  0  0  0  0  0  0  0
    6.4250    0.1609   -6.1951 O   0  0  0  0  0  0  0  0  0  0  0  0
    6.6824   -1.9484   -5.2800 N   0  0  0  0  0  0  0  0  0  0  0  0
    5.3970   -1.9913   -5.9724 C   0  0  0  0  0  3  0  0  0  0  0  0
    5.3110   -3.1933   -6.7746 N   0  0  0  0  0  0  0  0  0  0  0  0
    5.4869   -2.8419   -8.0777 O   0  0  0  0  0  1  0  0  0  0  0  0
  1  2  1  0
  2  3  1  0
  3  4  1  0
  4  5  1  0
  5  6  1  1
  6  7  1  0
  5  8  1  0
  8  9  1  6
  8 10  1  0
 10 11  1  6
 10 12  1  0
 12 13  1  0
 13 14  1  6
 13 15  1  0
 15 16  1  0
 16 17  1  0
 17 18  1  6
 17 19  1  0
 19 20  1  0
 20 21  1  0
 21 22  1  0
 22 23  1  0
 23 24  1  0
 24 25  1  0
 25 26  1  0
 26 27  1  0
 20 28  1  0
 28 29  1  0
 29 30  1  0
 30 31  1  0
 31 32  1  0
 32 33  1  0
 33 34  1  6
 33 35  1  0
 35 36  1  0
 36 37  1  0
 37 38  1  0
M  CHG  2  27  -1  38  -1
M  RAD  5   3   2  12   2  22   2  24   2  36   2
M  END
>  <docking_score>  (1) 
-0.45500000000000002

$$$$

     RDKit          3D

 38 37  0  0  0  0  0  0  0  0999 V2000
   17.0685   -3.7165   -2.8184 O   0  0  0  0  0  0  0  0  0  0  0  0
   17.9079   -2.8578   -2.1339 C   0  0  0  0  0  0  0  0  0  0  0  0
   18.7844   -2.1334   -3.1089 C   0  0  0  0  0  3  0  0  0  0  0  0
   20.1685   -2.4502   -2.7934 N   0  0  0  0  0  0  0  0  0  0  0  0
   20.6391   -3.5847   -3.5640 C   0  0  1  0  0  0  0  0  0  0  0  0
   21.1118   -4.6324   -2.5771 C   0  0  0  0  0  0  0  0  0  0  0  0
   20.3866   -4.5028   -1.3807 O   0  0  0  0  0  0  0  0  0  0  0  0
   19.4551   -4.1293   -4.3445 C   0  0  1  0  0  0  0  0  0  0  0  0
   19.4639   -3.6730   -5.6456 O   0  0  0  0  0  0  0  0  0  0  0  0
   19.4986   -5.6338   -4.2723 C   0  0  2  0  0  0  0  0  0  0  0  0
   20.6282   -6.1360   -4.9247 O   0  0  0  0  0  0  0  0  0  0  0  0
   18.2301   -6.1755   -4.9201 C   0  0  0  0  0  3  0  0  0  0  0  0
   18.3942   -6.0725   -6.3986 C   0  0  1  0  0  0  0  0  0  0  0  0
   18.7287   -7.2615   -7.0893 N   0  0  0  0  0  0  0  0  0  0  0  0
   17.3358   -5.2394   -7.0520 C   0  0  0  0  0  0  0  0  0  0  0  0
   16.0692   -5.4503   -6.5359 O   0  0  0  0  0  0  0  0  0  0  0  0
   15.3997   -4.2570   -6.3604 C   0  0  1  0  0  0  0  0  0  0  0  0
   15.2078   -4.0878   -4.9250 N   0  0  0  0  0  0  0  0  0  0  0  0
   16.2946   -3.2494   -6.7608 O   0  0  0  0  0  0  0  0  0  0  0  0
   16.4495   -2.2984   -5.8267 N   0  0  0  0  0  0  0  0  0  0  0  0
   15.1459   -1.9394   -5.4071 N   0  0  0  0  0  0  0  0  0  0  0  0
   14.5894   -0.8757   -6.1971 C   0  0  0  0  0  3  0  0  0  0  0  0
   13.8106   -0.0123   -5.4465 O   0  0  0  0  0  0  0  0  0  0  0  0
   13.1726   -0.6404   -4.3781 C   0  0  0  0  0  3  0  0  0  0  0  0
   12.2936    0.2145   -3.7176 O   0  0  0  0  0  0  0  0  0  0  0  0
   11.0630   -0.4031   -3.5595 C   0  0  0  0  0  0  0  0  0  0  0  0
   10.7566   -1.1868   -4.6671 O   0  0  0  0  0  1  0  0  0  0  0  0
   16.9740   -1.1619   -6.4526 N   0  0  0  0  0  0  0  0  0  0  0  0
   17.8946   -0.5735   -5.5714 N   0  0  0  0  0  0  0  0  0  0  0  0
   18.4125    0.5528   -6.0756 O   0  0  0  0  0  0  0  0  0  0  0  0
   19.2477    1.0537   -5.2002 O   0  0  0  0  0  0  0  0  0  0  0  0
   20.2686    1.6577   -5.7512 O   0  0  0  0  0  0  0  0  0  0  0  0
   19.8318    2.9090   -6.1871 C   0  0  1  0  0  0  0  0  0  0  0  0
   19.0200    3.4777   -5.2073 O   0  0  0  0  0  0  0  0  0  0  0  0
   20.9700    3.8053   -6.4083 N   0  0  0  0  0  0  0  0  0  0  0  0
   20.6452    5.0713   -5.7561 C   0  0  0  0  0  3  0  0  0  0  0  0
   21.3782    5.1859   -4.5130 N   0  0  0  0  0  0  0  0  0  0  0  0
   20.5154    5.6234   -3.5556 O   0  0  0  0  0  1  0  0  0  0  0  0
  1  2  1  0
  2  3  1  0
  3  4  1  0
  4  5  1  0
  5  6  1  1
  6  7  1  0
  5  8  1  0
  8  9  1  6
  8 10  1  0
 10 11  1  6
 10 12  1  0
 12 13  1  0
 13 14  1  6
 13 15  1  0
 15 16  1  0
 16 17  1  0
 17 18  1  1
 17 19  1  0
 19 20  1  0
 20 21  1  0
 21 22  1  0
 22 23  1  0
 23 24  1  0
 24 25  1  0
 25 26  1  0
 26 27  1  0
 20 28  1  0
 28 29  1  0
 29 30  1  0
 30 31  1  0
 31 32  1  0
 32 33  1  0
 33 34  1  1
 33 35  1  0
 35 36  1  0
 36 37  1  0
 37 38  1  0
M  CHG  2  27  -1  38  -1
M  RAD  5   3   2  12   2  22   2  24   2  36   2
M  END
>  <docking_score>  (2) 
1.05

$$$$

     RDKit          3D

 38 37  0  0  0  0  0  0  0  0999 V2000
   14.7797   -6.0717   -4.8257 O   0  0  0  0  0  0  0  0  0  0  0  0
   14.7185   -7.4065   -5.1795 C   0  0  0  0  0  0  0  0  0  0  0  0
   16.0272   -8.0659   -4.8698 C   0  0  0  0  0  3  0  0  0  0  0  0
   17.0878   -7.1010   -5.1144 N   0  0  0  0  0  0  0  0  0  0  0  0
   18.1744   -7.6916   -5.8712 C   0  0  1  0  0  0  0  0  0  0  0  0
   17.5589   -8.6676   -6.8529 C   0  0  0  0  0  0  0  0  0  0  0  0
   17.3400   -9.8969   -6.2087 O   0  0  0  0  0  0  0  0  0  0  0  0
   18.8577   -6.5726   -6.6384 C   0  0  1  0  0  0  0  0  0  0  0  0
   20.0719   -6.9852   -7.1450 O   0  0  0  0  0  0  0  0  0  0  0  0
   17.9204   -6.1082   -7.7231 C   0  0  2  0  0  0  0  0  0  0  0  0
   17.4444   -7.1879   -8.4724 O   0  0  0  0  0  0  0  0  0  0  0  0
   18.6785   -5.1366   -8.6195 C   0  0  0  0  0  3  0  0  0  0  0  0
   18.1732   -3.7633   -8.3323 C   0  0  1  0  0  0  0  0  0  0  0  0
   16.9947   -3.6651   -7.5550 N   0  0  0  0  0  0  0  0  0  0  0  0
   19.2586   -2.8029   -7.9572 C   0  0  0  0  0  0  0  0  0  0  0  0
   19.6594   -2.9096   -6.6369 O   0  0  0  0  0  0  0  0  0  0  0  0
   21.0129   -2.6761   -6.5087 C   0  0  1  0  0  0  0  0  0  0  0  0
   21.3723   -1.7030   -7.5334 N   0  0  0  0  0  0  0  0  0  0  0  0
   21.1776   -2.0272   -5.2726 O   0  0  0  0  0  0  0  0  0  0  0  0
   20.5312   -2.6498   -4.2748 N   0  0  0  0  0  0  0  0  0  0  0  0
   21.3817   -3.6964   -3.8441 N   0  0  0  0  0  0  0  0  0  0  0  0
   20.7807   -4.9919   -4.0042 C   0  0  0  0  0  3  0  0  0  0  0  0
   19.4724   -5.0263   -3.5542 O   0  0  0  0  0  0  0  0  0  0  0  0
   19.3714   -4.9925   -2.1644 C   0  0  0  0  0  3  0  0  0  0  0  0
   20.5468   -4.5463   -1.5650 O   0  0  0  0  0  0  0  0  0  0  0  0
   20.3090   -3.3654   -0.8797 C   0  0  0  0  0  0  0  0  0  0  0  0
   21.3307   -2.4485   -1.1042 O   0  0  0  0  0  1  0  0  0  0  0  0
   19.4030   -3.2754   -4.8173 N   0  0  0  0  0  0  0  0  0  0  0  0
   18.3095   -2.9819   -3.9876 N   0  0  0  0  0  0  0  0  0  0  0  0
   18.0134   -1.6768   -4.0016 O   0  0  0  0  0  0  0  0  0  0  0  0
   17.1603   -1.4552   -4.9701 O   0  0  0  0  0  0  0  0  0  0  0  0
   16.0415   -0.9189   -4.5565 O   0  0  0  0  0  0  0  0  0  0  0  0
   15.2561   -1.9419   -4.0242 C   0  0  1  0  0  0  0  0  0  0  0  0
   15.3911   -1.9486   -2.6371 O   0  0  0  0  0  0  0  0  0  0  0  0
   13.8416   -1.7253   -4.3405 N   0  0  0  0  0  0  0  0  0  0  0  0
   13.7961   -1.0394   -5.6294 C   0  0  0  0  0  3  0  0  0  0  0  0
   14.0702   -1.9791   -6.6960 N   0  0  0  0  0  0  0  0  0  0  0  0
   14.3272   -3.1909   -6.1322 O   0  0  0  0  0  1  0  0  0  0  0  0
  1  2  1  0
  2  3  1  0
  3  4  1  0
  4  5  1  0
  5  6  1  6
  6  7  1  0
  5  8  1  0
  8  9  1  6
  8 10  1  0
 10 11  1  6
 10 12  1  0
 12 13  1  0
 13 14  1  1
 13 15  1  0
 15 16  1  0
 16 17  1  0
 17 18  1  6
 17 19  1  0
 19 20  1  0
 20 21  1  0
 21 22  1  0
 22 23  1  0
 23 24  1  0
 24 25  1  0
 25 26  1  0
 26 27  1  0
 20 28  1  0
 28 29  1  0
 29 30  1  0
 30 31  1  0
 31 32  1  0
 32 33  1  0
 33 34  1  1
 33 35  1  0
 35 36  1  0
 36 37  1  0
 37 38  1  0
M  CHG  2  27  -1  38  -1
M  RAD  5   3   2  12   2  22   2  24   2  36   2
M  END
>  <docking_score>  (3) 
1.5249999999999999

$$$$
