
     RDKit          3D

 18 19  0  0  0  0  0  0  0  0999 V2000
   14.8375   -2.2311   -5.4675 C   0  0  0  0  0  0  0  0  0  0  0  0
   14.9192   -3.5251   -4.7063 C   0  0  1  0  0  0  0  0  0  0  0  0
   14.4636   -4.6243   -5.5878 C   0  0  0  0  0  0  0  0  0  0  0  0
   15.1423   -5.9212   -5.5166 C   0  0  2  0  0  0  0  0  0  0  0  0
   14.4616   -6.9079   -4.7990 O   0  0  0  0  0  0  0  0  0  0  0  0
   16.5543   -5.8841   -4.9664 C   0  0  2  0  0  0  0  0  0  0  0  0
   17.0356   -7.1603   -4.7468 O   0  0  0  0  0  0  0  0  0  0  0  0
   16.4235   -5.1676   -3.6130 C   0  0  1  0  0  0  0  0  0  0  0  0
   17.5269   -5.3571   -2.8135 O   0  0  0  0  0  0  0  0  0  0  0  0
   16.1616   -3.7398   -3.9495 C   0  0  1  0  0  0  0  0  0  0  0  0
   17.3385   -3.0876   -4.4368 N   0  0  0  0  0  0  0  0  0  0  0  0
   17.7771   -2.1256   -3.4718 C   0  0  0  0  0  3  0  0  0  0  0  0
   19.2059   -1.6428   -3.7530 C   0  0  2  0  0  0  0  0  0  0  0  0
   20.1020   -2.8303   -3.3713 C   0  0  0  0  0  0  0  0  0  0  0  0
   20.9041   -2.4468   -2.2988 O   0  0  0  0  0  0  0  0  0  0  0  0
   20.1276   -2.0136   -1.2018 C   0  0  0  0  0  3  0  0  0  0  0  0
   19.2561   -0.9837   -1.6265 O   0  0  0  0  0  0  0  0  0  0  0  0
   19.5367   -0.5992   -2.8573 O   0  0  0  0  0  0  0  0  0  0  0  0
  2  1  1  6
  2  3  1  0
  3  4  1  0
  4  5  1  1
  4  6  1  0
  6  7  1  1
  6  8  1  0
  8  9  1  6
  8 10  1  0
 10 11  1  6
 11 12  1  0
 13 12  1  1
 13 14  1  0
 14 15  1  0
 15 16  1  0
 16 17  1  0
 13 18  1  0
 10  2  1  0
 18 17  1  0
M  RAD  2  12   2  16   2
M  END
>  <docking_score>  (1) 
-4.3869999999999996

$$$$

     RDKit          3D

 18 19  0  0  0  0  0  0  0  0999 V2000
   17.3693   -4.8020   -2.3743 C   0  0  0  0  0  0  0  0  0  0  0  0
   16.1992   -4.0159   -2.8973 C   0  0  1  0  0  0  0  0  0  0  0  0
   16.3552   -2.6018   -2.4861 C   0  0  0  0  0  0  0  0  0  0  0  0
   15.9546   -1.5422   -3.4159 C   0  0  2  0  0  0  0  0  0  0  0  0
   14.7210   -0.9472   -3.1407 O   0  0  0  0  0  0  0  0  0  0  0  0
   15.9250   -1.9406   -4.8781 C   0  0  2  0  0  0  0  0  0  0  0  0
   15.3466   -0.9521   -5.6507 O   0  0  0  0  0  0  0  0  0  0  0  0
   15.0277   -3.1875   -4.9214 C   0  0  1  0  0  0  0  0  0  0  0  0
   14.5964   -3.4762   -6.1955 O   0  0  0  0  0  0  0  0  0  0  0  0
   15.8359   -4.2735   -4.2987 C   0  0  1  0  0  0  0  0  0  0  0  0
   16.8817   -4.7185   -5.1683 N   0  0  0  0  0  0  0  0  0  0  0  0
   16.6131   -6.0637   -5.5774 C   0  0  0  0  0  3  0  0  0  0  0  0
   17.7080   -6.6103   -6.5027 C   0  0  2  0  0  0  0  0  0  0  0  0
   17.4525   -8.1237   -6.5591 C   0  0  0  0  0  0  0  0  0  0  0  0
   18.5466   -8.7740   -5.9930 O   0  0  0  0  0  0  0  0  0  0  0  0
   18.7780   -8.3395   -4.6694 C   0  0  0  0  0  3  0  0  0  0  0  0
   18.9152   -6.9317   -4.6593 O   0  0  0  0  0  0  0  0  0  0  0  0
   18.9709   -6.4494   -5.8863 O   0  0  0  0  0  0  0  0  0  0  0  0
  2  1  1  6
  2  3  1  0
  3  4  1  0
  4  5  1  1
  4  6  1  0
  6  7  1  6
  6  8  1  0
  8  9  1  6
  8 10  1  0
 10 11  1  6
 11 12  1  0
 13 12  1  1
 13 14  1  0
 14 15  1  0
 15 16  1  0
 16 17  1  0
 13 18  1  0
 10  2  1  0
 18 17  1  0
M  RAD  2  12   2  16   2
M  END
>  <docking_score>  (2) 
-4.0540000000000003

$$$$

     RDKit          3D

 18 19  0  0  0  0  0  0  0  0999 V2000
   18.4363   -3.3396   -7.4892 C   0  0  0  0  0  0  0  0  0  0  0  0
   16.9390   -3.4691   -7.5304 C   0  0  1  0  0  0  0  0  0  0  0  0
   16.5912   -4.7576   -8.1720 C   0  0  0  0  0  0  0  0  0  0  0  0
   15.4491   -5.5211   -7.6617 C   0  0  2  0  0  0  0  0  0  0  0  0
   14.2809   -5.4192   -8.4210 O   0  0  0  0  0  0  0  0  0  0  0  0
   15.0592   -5.2226   -6.2276 C   0  0  2  0  0  0  0  0  0  0  0  0
   13.8619   -5.8300   -5.9016 O   0  0  0  0  0  0  0  0  0  0  0  0
   14.8646   -3.6986   -6.1887 C   0  0  1  0  0  0  0  0  0  0  0  0
   14.1681   -3.2896   -5.0750 O   0  0  0  0  0  0  0  0  0  0  0  0
   16.2369   -3.1260   -6.2848 C   0  0  1  0  0  0  0  0  0  0  0  0
   16.9647   -3.2912   -5.0638 N   0  0  0  0  0  0  0  0  0  0  0  0
   17.1153   -2.0168   -4.4295 C   0  0  0  0  0  3  0  0  0  0  0  0
   18.1726   -2.0515   -3.3184 C   0  0  2  0  0  0  0  0  0  0  0  0
   18.4929   -3.5417   -3.1299 C   0  0  0  0  0  0  0  0  0  0  0  0
   18.1043   -3.9142   -1.8451 O   0  0  0  0  0  0  0  0  0  0  0  0
   16.7353   -3.6492   -1.6221 C   0  0  0  0  0  3  0  0  0  0  0  0
   16.4745   -2.2865   -1.8971 O   0  0  0  0  0  0  0  0  0  0  0  0
   17.5941   -1.6188   -2.1022 O   0  0  0  0  0  0  0  0  0  0  0  0
  2  1  1  1
  2  3  1  0
  3  4  1  0
  4  5  1  6
  4  6  1  0
  6  7  1  6
  6  8  1  0
  8  9  1  1
  8 10  1  0
 10 11  1  1
 11 12  1  0
 13 12  1  6
 13 14  1  0
 14 15  1  0
 15 16  1  0
 16 17  1  0
 13 18  1  0
 10  2  1  0
 18 17  1  0
M  RAD  2  12   2  16   2
M  END
>  <docking_score>  (3) 
-3.9969999999999999

$$$$
