
     RDKit          3D

 31 33  0  0  0  0  0  0  0  0999 V2000
   17.9468   -0.9420   -5.1478 C   0  0  0  0  0  0  0  0  0  0  0  0
   18.8404   -1.9068   -4.3998 C   0  0  1  0  0  0  0  0  0  0  0  0
   19.7833   -1.1214   -3.5308 C   0  0  0  0  0  0  0  0  0  0  0  0
   20.4723   -1.9848   -2.5103 C   0  0  2  0  0  0  0  0  0  0  0  0
   21.3824   -2.8653   -3.0916 O   0  0  0  0  0  0  0  0  0  0  0  0
   19.4824   -2.7315   -1.6267 C   0  0  2  0  0  0  0  0  0  0  0  0
   19.7460   -4.0951   -1.6829 O   0  0  0  0  0  0  0  0  0  0  0  0
   18.0616   -2.4834   -2.1103 C   0  0  1  0  0  0  0  0  0  0  0  0
   17.7840   -1.1214   -1.9925 O   0  0  0  0  0  0  0  0  0  0  0  0
   18.0200   -2.8552   -3.5676 C   0  0  1  0  0  0  0  0  0  0  0  0
   16.6656   -2.8216   -4.0910 N   0  0  0  0  0  0  0  0  0  0  0  0
   16.3104   -4.2046   -4.4015 C   0  0  0  0  0  3  0  0  0  0  0  0
   14.8943   -4.2055   -4.9085 C   0  0  1  0  0  0  0  0  0  0  0  0
   14.6408   -2.8993   -5.6119 C   0  0  0  0  0  0  0  0  0  0  0  0
   14.6195   -5.3023   -5.7335 O   0  0  0  0  0  0  0  0  0  0  0  0
   15.7426   -5.7889   -6.3110 N   0  0  0  0  0  0  0  0  0  0  0  0
   15.5633   -5.6445   -7.6552 O   0  0  0  0  0  0  0  0  0  0  0  0
   16.5831   -6.3546   -8.2729 C   0  0  0  0  0  3  0  0  0  0  0  0
   17.9039   -5.6466   -8.1368 C   0  0  1  0  0  0  0  0  0  0  0  0
   17.9317   -4.8039   -7.0437 O   0  0  0  0  0  0  0  0  0  0  0  0
   19.0787   -6.5712   -8.2291 C   0  0  2  0  0  0  0  0  0  0  0  0
   18.5752   -7.8740   -8.3766 O   0  0  0  0  0  0  0  0  0  0  0  0
   19.9643   -6.5723   -7.0318 C   0  0  1  0  0  0  0  0  0  0  0  0
   21.1388   -5.6398   -7.1308 C   0  0  0  0  0  0  0  0  0  0  0  0
   21.2448   -4.8984   -5.8287 C   0  0  0  0  0  3  0  0  0  0  0  0
   21.1841   -5.8534   -4.8088 O   0  0  0  0  0  0  0  0  0  0  0  0
   19.2032   -6.0984   -5.5632 S   0  0  2  0  0  0  0  0  0  0  0  0
   19.0344   -7.8283   -4.7117 C   0  0  0  0  0  0  0  0  0  0  0  0
   17.8325   -8.2072   -5.2867 O   0  0  0  0  0  0  0  0  0  0  0  0
   16.8247   -7.3020   -4.9879 C   0  0  0  0  0  0  0  0  0  0  0  0
   15.9332   -7.1019   -6.0301 O   0  0  0  0  0  0  0  0  0  0  0  0
  2  1  1  1
  2  3  1  0
  3  4  1  0
  4  5  1  6
  4  6  1  0
  6  7  1  6
  6  8  1  0
  8  9  1  6
  8 10  1  0
 10 11  1  6
 11 12  1  0
 12 13  1  0
 13 14  1  6
 13 15  1  0
 15 16  1  0
 16 17  1  0
 17 18  1  0
 18 19  1  0
 19 20  1  1
 19 21  1  0
 21 22  1  1
 21 23  1  0
 23 24  1  6
 24 25  1  0
 25 26  1  0
 26 27  1  0
 27 28  1  1
 28 29  1  0
 29 30  1  0
 30 31  1  0
 10  2  1  0
 31 16  1  0
 27 23  1  0
M  RAD  3  12   2  18   2  25   2
M  END
>  <docking_score>  (1) 
-4.21

$$$$

     RDKit          3D

 31 33  0  0  0  0  0  0  0  0999 V2000
   20.6795   -0.8170   -2.7787 C   0  0  0  0  0  0  0  0  0  0  0  0
   20.5502   -2.2861   -3.1161 C   0  0  1  0  0  0  0  0  0  0  0  0
   21.1799   -3.0944   -2.0154 C   0  0  0  0  0  0  0  0  0  0  0  0
   20.8091   -4.5498   -2.0922 C   0  0  2  0  0  0  0  0  0  0  0  0
   21.3823   -5.1833   -3.1929 O   0  0  0  0  0  0  0  0  0  0  0  0
   19.3014   -4.7609   -2.0680 C   0  0  2  0  0  0  0  0  0  0  0  0
   18.9174   -5.4986   -3.1817 O   0  0  0  0  0  0  0  0  0  0  0  0
   18.5865   -3.4184   -2.0951 C   0  0  1  0  0  0  0  0  0  0  0  0
   18.9290   -2.7097   -0.9435 O   0  0  0  0  0  0  0  0  0  0  0  0
   19.1046   -2.6664   -3.2908 C   0  0  1  0  0  0  0  0  0  0  0  0
   18.3631   -1.4376   -3.5139 N   0  0  0  0  0  0  0  0  0  0  0  0
   17.4461   -1.7057   -4.6195 C   0  0  0  0  0  3  0  0  0  0  0  0
   17.8510   -0.8226   -5.7678 C   0  0  1  0  0  0  0  0  0  0  0  0
   19.3402   -0.9372   -5.9531 C   0  0  0  0  0  0  0  0  0  0  0  0
   17.1560   -1.1203   -6.9458 O   0  0  0  0  0  0  0  0  0  0  0  0
   17.1150   -2.4525   -7.1806 N   0  0  0  0  0  0  0  0  0  0  0  0
   18.3417   -2.7813   -7.6778 O   0  0  0  0  0  0  0  0  0  0  0  0
   18.2445   -4.0814   -8.1535 C   0  0  0  0  0  3  0  0  0  0  0  0
   18.1773   -5.0741   -7.0246 C   0  0  1  0  0  0  0  0  0  0  0  0
   17.6984   -4.5062   -5.8610 O   0  0  0  0  0  0  0  0  0  0  0  0
   17.4996   -6.3539   -7.4070 C   0  0  2  0  0  0  0  0  0  0  0  0
   17.0767   -6.2215   -8.7397 O   0  0  0  0  0  0  0  0  0  0  0  0
   16.2983   -6.6885   -6.5930 C   0  0  1  0  0  0  0  0  0  0  0  0
   16.5749   -7.5950   -5.4265 C   0  0  0  0  0  0  0  0  0  0  0  0
   15.8531   -7.0372   -4.2331 C   0  0  0  0  0  3  0  0  0  0  0  0
   14.5377   -6.7818   -4.6338 O   0  0  0  0  0  0  0  0  0  0  0  0
   15.5102   -5.3403   -5.8705 S   0  0  2  0  0  0  0  0  0  0  0  0
   13.9640   -5.2094   -7.0275 C   0  0  0  0  0  0  0  0  0  0  0  0
   14.5333   -4.4268   -8.0184 O   0  0  0  0  0  0  0  0  0  0  0  0
   14.9904   -3.2212   -7.5065 C   0  0  0  0  0  0  0  0  0  0  0  0
   16.1668   -2.7812   -8.0926 O   0  0  0  0  0  0  0  0  0  0  0  0
  2  1  1  1
  2  3  1  0
  3  4  1  0
  4  5  1  6
  4  6  1  0
  6  7  1  6
  6  8  1  0
  8  9  1  1
  8 10  1  0
 10 11  1  1
 11 12  1  0
 12 13  1  0
 13 14  1  6
 13 15  1  0
 15 16  1  0
 16 17  1  0
 17 18  1  0
 18 19  1  0
 19 20  1  1
 19 21  1  0
 21 22  1  6
 21 23  1  0
 23 24  1  1
 24 25  1  0
 25 26  1  0
 26 27  1  0
 27 28  1  6
 28 29  1  0
 29 30  1  0
 30 31  1  0
 10  2  1  0
 31 16  1  0
 27 23  1  0
M  RAD  3  12   2  18   2  25   2
M  END
>  <docking_score>  (2) 
-2.7770000000000001

$$$$

     RDKit          3D

 31 33  0  0  0  0  0  0  0  0999 V2000
    2.2969    8.2373   10.6609 C   0  0  0  0  0  0  0  0  0  0  0  0
    2.4142    9.7454   10.6837 C   0  0  1  0  0  0  0  0  0  0  0  0
    3.0294   10.1650   11.9902 C   0  0  0  0  0  0  0  0  0  0  0  0
    3.4911   11.5961   11.9702 C   0  0  2  0  0  0  0  0  0  0  0  0
    2.4265   12.4938   11.9241 O   0  0  0  0  0  0  0  0  0  0  0  0
    4.4785   11.8658   10.8429 C   0  0  2  0  0  0  0  0  0  0  0  0
    4.0130   12.9145   10.0584 O   0  0  0  0  0  0  0  0  0  0  0  0
    4.6273   10.6270    9.9726 C   0  0  1  0  0  0  0  0  0  0  0  0
    5.1530    9.5970   10.7528 O   0  0  0  0  0  0  0  0  0  0  0  0
    3.2457   10.2317    9.5274 C   0  0  1  0  0  0  0  0  0  0  0  0
    3.2841    9.1600    8.5478 N   0  0  0  0  0  0  0  0  0  0  0  0
    4.6721    9.0601    8.1020 C   0  0  0  0  0  3  0  0  0  0  0  0
    4.6666    9.0728    6.5980 C   0  0  1  0  0  0  0  0  0  0  0  0
    4.7277    7.6501    6.1107 C   0  0  0  0  0  0  0  0  0  0  0  0
    3.5650    9.7563    6.0703 O   0  0  0  0  0  0  0  0  0  0  0  0
    3.9453   10.8163    5.3196 N   0  0  0  0  0  0  0  0  0  0  0  0
    3.1719   11.8614    5.7313 O   0  0  0  0  0  0  0  0  0  0  0  0
    3.3670   12.8872    4.8171 C   0  0  0  0  0  3  0  0  0  0  0  0
    4.7218   13.5200    4.9849 C   0  0  1  0  0  0  0  0  0  0  0  0
    5.6265   12.6619    5.5773 O   0  0  0  0  0  0  0  0  0  0  0  0
    5.2241   14.1736    3.7343 C   0  0  2  0  0  0  0  0  0  0  0  0
    4.2644   13.9539    2.7327 O   0  0  0  0  0  0  0  0  0  0  0  0
    6.5194   13.6386    3.2305 C   0  0  1  0  0  0  0  0  0  0  0  0
    7.7267   14.4042    3.6944 C   0  0  0  0  0  0  0  0  0  0  0  0
    8.7602   13.4060    4.1325 C   0  0  0  0  0  3  0  0  0  0  0  0
    8.8734   12.4593    3.1093 O   0  0  0  0  0  0  0  0  0  0  0  0
    6.8703   12.0207    3.6996 S   0  0  2  0  0  0  0  0  0  0  0  0
    6.5181   11.1137    2.0264 C   0  0  0  0  0  0  0  0  0  0  0  0
    5.1546   10.9333    2.1909 O   0  0  0  0  0  0  0  0  0  0  0  0
    4.8793   10.1938    3.3318 C   0  0  0  0  0  0  0  0  0  0  0  0
    3.7351   10.6064    3.9965 O   0  0  0  0  0  0  0  0  0  0  0  0
  2  1  1  1
  2  3  1  0
  3  4  1  0
  4  5  1  6
  4  6  1  0
  6  7  1  6
  6  8  1  0
  8  9  1  1
  8 10  1  0
 10 11  1  6
 11 12  1  0
 12 13  1  0
 13 14  1  6
 13 15  1  0
 15 16  1  0
 16 17  1  0
 17 18  1  0
 18 19  1  0
 19 20  1  6
 19 21  1  0
 21 22  1  6
 21 23  1  0
 23 24  1  1
 24 25  1  0
 25 26  1  0
 26 27  1  0
 27 28  1  6
 28 29  1  0
 29 30  1  0
 30 31  1  0
 10  2  1  0
 31 16  1  0
 27 23  1  0
M  RAD  3  12   2  18   2  25   2
M  END
>  <docking_score>  (3) 
-2.3969999999999998

$$$$
