
     RDKit          3D

 19 19  0  0  0  0  0  0  0  0999 V2000
   19.0992   -3.3308   -1.6941 C   0  0  0  0  0  0  0  0  0  0  0  0
   17.9292   -4.1668   -2.2000 C   0  0  1  0  0  0  0  0  0  0  0  0
   16.6538   -3.4426   -1.7847 C   0  0  0  0  0  0  0  0  0  0  0  0
   16.8189   -2.0138   -2.2727 C   0  0  2  0  0  0  0  0  0  0  0  0
   15.7749   -1.2117   -1.7967 O   0  0  0  0  0  0  0  0  0  0  0  0
   16.8177   -2.0050   -3.7564 C   0  0  2  0  0  0  0  0  0  0  0  0
   15.5418   -1.9740   -4.2825 O   0  0  0  0  0  0  0  0  0  0  0  0
   17.6232   -3.0356   -4.4271 C   0  0  1  0  0  0  0  0  0  0  0  0
   18.7654   -2.4597   -4.9694 O   0  0  0  0  0  0  0  0  0  0  0  0
   17.9247   -4.2688   -3.6958 C   0  0  1  0  0  0  0  0  0  0  0  0
   19.1655   -4.8788   -4.1213 N   0  0  0  0  0  0  0  0  0  0  0  0
   18.8191   -5.9407   -5.0680 C   0  0  0  0  0  3  0  0  0  0  0  0
   17.7411   -6.7989   -4.4757 C   0  0  0  0  0  0  0  0  0  0  0  0
   16.8768   -7.3220   -5.5999 C   0  0  2  0  0  0  0  0  0  0  0  0
   16.6892   -8.6868   -5.4117 O   0  0  0  0  0  0  0  0  0  0  0  0
   17.5092   -6.9991   -6.9348 C   0  0  0  0  0  0  0  0  0  0  0  0
   16.5759   -6.4657   -7.8122 O   0  0  0  0  0  0  0  0  0  0  0  0
   15.5122   -6.6738   -5.4607 C   0  0  0  0  0  3  0  0  0  0  0  0
   15.3267   -6.4436   -4.0834 O   0  0  0  0  0  0  0  0  0  0  0  0
  2  1  1  6
  2  3  1  0
  3  4  1  0
  4  5  1  1
  4  6  1  0
  6  7  1  6
  6  8  1  0
  8  9  1  1
  8 10  1  0
 10 11  1  6
 11 12  1  0
 12 13  1  0
 13 14  1  0
 14 15  1  1
 14 16  1  0
 16 17  1  0
 14 18  1  0
 18 19  1  0
 10  2  1  0
M  RAD  2  12   2  18   2
M  END
>  <docking_score>  (1) 
-3.923

$$$$

     RDKit          3D

 19 19  0  0  0  0  0  0  0  0999 V2000
   18.1737   -5.6233   -3.6561 C   0  0  0  0  0  0  0  0  0  0  0  0
   18.1241   -5.2399   -5.1306 C   0  0  1  0  0  0  0  0  0  0  0  0
   19.2088   -6.0461   -5.8356 C   0  0  0  0  0  0  0  0  0  0  0  0
   18.9723   -7.4905   -5.4295 C   0  0  2  0  0  0  0  0  0  0  0  0
   20.0167   -8.3032   -5.8862 O   0  0  0  0  0  0  0  0  0  0  0  0
   17.6887   -7.9539   -6.0118 C   0  0  2  0  0  0  0  0  0  0  0  0
   17.8303   -8.4044   -7.3090 O   0  0  0  0  0  0  0  0  0  0  0  0
   16.5442   -7.0371   -5.9102 C   0  0  1  0  0  0  0  0  0  0  0  0
   15.6505   -7.5057   -4.9552 O   0  0  0  0  0  0  0  0  0  0  0  0
   16.8111   -5.6047   -5.7558 C   0  0  1  0  0  0  0  0  0  0  0  0
   15.7546   -4.9150   -5.0483 N   0  0  0  0  0  0  0  0  0  0  0  0
   15.5959   -3.6057   -5.6843 C   0  0  0  0  0  3  0  0  0  0  0  0
   14.5561   -2.8188   -4.9435 C   0  0  0  0  0  0  0  0  0  0  0  0
   15.2094   -1.5779   -4.3797 C   0  0  2  0  0  0  0  0  0  0  0  0
   16.0195   -1.0218   -5.3636 O   0  0  0  0  0  0  0  0  0  0  0  0
   15.9730   -1.9194   -3.1202 C   0  0  0  0  0  0  0  0  0  0  0  0
   15.5470   -1.1416   -2.0530 O   0  0  0  0  0  0  0  0  0  0  0  0
   14.1079   -0.5714   -4.1055 C   0  0  0  0  0  3  0  0  0  0  0  0
   14.1999    0.3972   -5.1242 O   0  0  0  0  0  0  0  0  0  0  0  0
  2  1  1  1
  2  3  1  0
  3  4  1  0
  4  5  1  6
  4  6  1  0
  6  7  1  6
  6  8  1  0
  8  9  1  1
  8 10  1  0
 10 11  1  1
 11 12  1  0
 12 13  1  0
 13 14  1  0
 14 15  1  6
 14 16  1  0
 16 17  1  0
 14 18  1  0
 18 19  1  0
 10  2  1  0
M  RAD  2  12   2  18   2
M  END
>  <docking_score>  (2) 
-3.6850000000000001

$$$$

     RDKit          3D

 19 19  0  0  0  0  0  0  0  0999 V2000
   19.1975   -1.8055   -1.7337 C   0  0  0  0  0  0  0  0  0  0  0  0
   18.7081   -2.2007   -3.1222 C   0  0  1  0  0  0  0  0  0  0  0  0
   19.6275   -3.3110   -3.6177 C   0  0  0  0  0  0  0  0  0  0  0  0
   19.6486   -4.3483   -2.5084 C   0  0  2  0  0  0  0  0  0  0  0  0
   20.5983   -5.3391   -2.7845 O   0  0  0  0  0  0  0  0  0  0  0  0
   18.3037   -4.9646   -2.3952 C   0  0  2  0  0  0  0  0  0  0  0  0
   18.1243   -6.0057   -3.2839 O   0  0  0  0  0  0  0  0  0  0  0  0
   17.1505   -4.0538   -2.4341 C   0  0  1  0  0  0  0  0  0  0  0  0
   16.6024   -3.9357   -1.1630 O   0  0  0  0  0  0  0  0  0  0  0  0
   17.3140   -2.7511   -3.0844 C   0  0  1  0  0  0  0  0  0  0  0  0
   16.4333   -1.7420   -2.5379 N   0  0  0  0  0  0  0  0  0  0  0  0
   15.3238   -1.5847   -3.4804 C   0  0  0  0  0  3  0  0  0  0  0  0
   15.8643   -1.1639   -4.8146 C   0  0  0  0  0  0  0  0  0  0  0  0
   14.7915   -1.3875   -5.8555 C   0  0  2  0  0  0  0  0  0  0  0  0
   13.8252   -2.2299   -5.3170 O   0  0  0  0  0  0  0  0  0  0  0  0
   15.4044   -1.9387   -7.1230 C   0  0  0  0  0  0  0  0  0  0  0  0
   15.5872   -3.3111   -7.0320 O   0  0  0  0  0  0  0  0  0  0  0  0
   14.1141   -0.0524   -6.1012 C   0  0  0  0  0  3  0  0  0  0  0  0
   13.5001    0.3049   -4.8848 O   0  0  0  0  0  0  0  0  0  0  0  0
  2  1  1  1
  2  3  1  0
  3  4  1  0
  4  5  1  6
  4  6  1  0
  6  7  1  6
  6  8  1  0
  8  9  1  1
  8 10  1  0
 10 11  1  1
 11 12  1  0
 12 13  1  0
 13 14  1  0
 14 15  1  1
 14 16  1  0
 16 17  1  0
 14 18  1  0
 18 19  1  0
 10  2  1  0
M  RAD  2  12   2  18   2
M  END
>  <docking_score>  (3) 
-3.6139999999999999

$$$$
