
     RDKit          3D

 25 25  0  0  0  0  0  0  0  0999 V2000
   15.5780   -5.2731   -5.0045 C   0  0  0  0  0  0  0  0  0  0  0  0
   16.1728   -6.5187   -4.4212 C   0  0  1  0  0  0  0  0  0  0  0  0
   16.0358   -7.6465   -5.3512 C   0  0  0  0  0  0  0  0  0  0  0  0
   17.2413   -8.3242   -5.8166 C   0  0  2  0  0  0  0  0  0  0  0  0
   17.2984   -9.6175   -5.2880 O   0  0  0  0  0  0  0  0  0  0  0  0
   18.5411   -7.6405   -5.6549 C   0  0  2  0  0  0  0  0  0  0  0  0
   19.3967   -8.4284   -4.8850 O   0  0  0  0  0  0  0  0  0  0  0  0
   18.4934   -6.2820   -5.0558 C   0  0  1  0  0  0  0  0  0  0  0  0
   18.0383   -5.3789   -6.0124 O   0  0  0  0  0  0  0  0  0  0  0  0
   17.5445   -6.3453   -3.8643 C   0  0  1  0  0  0  0  0  0  0  0  0
   17.6673   -5.1774   -3.0267 N   0  0  0  0  0  0  0  0  0  0  0  0
   19.0654   -5.0454   -2.6600 C   0  0  0  0  0  3  0  0  0  0  0  0
   19.2562   -3.5681   -2.2993 C   0  0  2  0  0  0  0  0  0  0  0  0
   20.0463   -3.5854   -0.9854 C   0  0  0  0  0  0  0  0  0  0  0  0
   18.0279   -2.9432   -2.0757 O   0  0  0  0  0  0  0  0  0  0  0  0
   17.9928   -1.6686   -2.6406 C   0  0  1  0  0  0  0  0  0  0  0  0
   18.8842   -0.8148   -1.9686 O   0  0  0  0  0  0  0  0  0  0  0  0
   18.5424   -1.7871   -4.0563 C   0  0  2  0  0  0  0  0  0  0  0  0
   19.1664   -0.6009   -4.4263 O   0  0  0  0  0  0  0  0  0  0  0  0
   17.4058   -2.1396   -4.9963 C   0  0  2  0  0  0  0  0  0  0  0  0
   17.6170   -1.4277   -6.1784 O   0  0  0  0  0  0  0  0  0  0  0  0
   16.1201   -1.6205   -4.3724 C   0  0  0  0  0  3  0  0  0  0  0  0
   15.3055   -0.8316   -5.3810 C   0  0  0  0  0  0  0  0  0  0  0  0
   13.8972   -0.7563   -4.8340 C   0  0  0  0  0  3  0  0  0  0  0  0
   13.6769    0.5639   -4.4314 O   0  0  0  0  0  0  0  0  0  0  0  0
  2  1  1  6
  2  3  1  0
  3  4  1  0
  4  5  1  1
  4  6  1  0
  6  7  1  1
  6  8  1  0
  8  9  1  6
  8 10  1  0
 10 11  1  6
 11 12  1  0
 12 13  1  0
 13 14  1  1
 13 15  1  0
 15 16  1  0
 16 17  1  1
 16 18  1  0
 18 19  1  6
 18 20  1  0
 20 21  1  6
 20 22  1  0
 22 23  1  0
 23 24  1  0
 24 25  1  0
 10  2  1  0
M  RAD  3  12   2  22   2  24   2
M  END
>  <docking_score>  (1) 
-4.1959999999999997

$$$$

     RDKit          3D

 25 25  0  0  0  0  0  0  0  0999 V2000
   17.4242   -3.7063   -1.8122 C   0  0  0  0  0  0  0  0  0  0  0  0
   17.8916   -2.7890   -2.9011 C   0  0  1  0  0  0  0  0  0  0  0  0
   18.4798   -1.5678   -2.3369 C   0  0  0  0  0  0  0  0  0  0  0  0
   19.8669   -1.2445   -2.6535 C   0  0  2  0  0  0  0  0  0  0  0  0
   19.9206   -0.1089   -3.4677 O   0  0  0  0  0  0  0  0  0  0  0  0
   20.7333   -2.3119   -3.1953 C   0  0  2  0  0  0  0  0  0  0  0  0
   21.2300   -1.9300   -4.4415 O   0  0  0  0  0  0  0  0  0  0  0  0
   20.1078   -3.6521   -3.3337 C   0  0  1  0  0  0  0  0  0  0  0  0
   20.0168   -4.2434   -2.0767 O   0  0  0  0  0  0  0  0  0  0  0  0
   18.7269   -3.4467   -3.9459 C   0  0  1  0  0  0  0  0  0  0  0  0
   18.1648   -4.6899   -4.4141 N   0  0  0  0  0  0  0  0  0  0  0  0
   19.0241   -5.1892   -5.4719 C   0  0  0  0  0  3  0  0  0  0  0  0
   18.0923   -5.4796   -6.6535 C   0  0  2  0  0  0  0  0  0  0  0  0
   19.0300   -5.8446   -7.8104 C   0  0  0  0  0  0  0  0  0  0  0  0
   17.3630   -4.3433   -7.0087 O   0  0  0  0  0  0  0  0  0  0  0  0
   16.1731   -4.6808   -7.6532 C   0  0  1  0  0  0  0  0  0  0  0  0
   15.6243   -5.8422   -7.0830 O   0  0  0  0  0  0  0  0  0  0  0  0
   15.1688   -3.5751   -7.3547 C   0  0  2  0  0  0  0  0  0  0  0  0
   15.4317   -2.4650   -8.1496 O   0  0  0  0  0  0  0  0  0  0  0  0
   15.2362   -3.2362   -5.8782 C   0  0  2  0  0  0  0  0  0  0  0  0
   13.9892   -3.5432   -5.3308 O   0  0  0  0  0  0  0  0  0  0  0  0
   15.4290   -1.7324   -5.7635 C   0  0  0  0  0  3  0  0  0  0  0  0
   14.1373   -1.0474   -5.3570 C   0  0  0  0  0  0  0  0  0  0  0  0
   14.3513   -0.5196   -3.9556 C   0  0  0  0  0  3  0  0  0  0  0  0
   13.6852    0.7059   -3.8659 O   0  0  0  0  0  0  0  0  0  0  0  0
  2  1  1  1
  2  3  1  0
  3  4  1  0
  4  5  1  6
  4  6  1  0
  6  7  1  6
  6  8  1  0
  8  9  1  1
  8 10  1  0
 10 11  1  1
 11 12  1  0
 12 13  1  0
 13 14  1  6
 13 15  1  0
 15 16  1  0
 16 17  1  1
 16 18  1  0
 18 19  1  6
 18 20  1  0
 20 21  1  1
 20 22  1  0
 22 23  1  0
 23 24  1  0
 24 25  1  0
 10  2  1  0
M  RAD  3  12   2  22   2  24   2
M  END
>  <docking_score>  (2) 
-4.0380000000000003

$$$$

     RDKit          3D

 25 25  0  0  0  0  0  0  0  0999 V2000
   13.7551   -5.3545   -7.7961 C   0  0  0  0  0  0  0  0  0  0  0  0
   14.2445   -4.8974   -6.4556 C   0  0  1  0  0  0  0  0  0  0  0  0
   14.2505   -6.0089   -5.4964 C   0  0  0  0  0  0  0  0  0  0  0  0
   15.5110   -6.3864   -4.8658 C   0  0  2  0  0  0  0  0  0  0  0  0
   15.4780   -6.0735   -3.5033 O   0  0  0  0  0  0  0  0  0  0  0  0
   16.7724   -5.9160   -5.4750 C   0  0  2  0  0  0  0  0  0  0  0  0
   17.4921   -5.1620   -4.5481 O   0  0  0  0  0  0  0  0  0  0  0  0
   16.6372   -5.1179   -6.7205 C   0  0  1  0  0  0  0  0  0  0  0  0
   16.3430   -5.9730   -7.7788 O   0  0  0  0  0  0  0  0  0  0  0  0
   15.5121   -4.1141   -6.4957 C   0  0  1  0  0  0  0  0  0  0  0  0
   15.5068   -3.0884   -7.5098 N   0  0  0  0  0  0  0  0  0  0  0  0
   16.2043   -1.9351   -6.9711 C   0  0  0  0  0  3  0  0  0  0  0  0
   15.5906   -1.6950   -5.5874 C   0  0  2  0  0  0  0  0  0  0  0  0
   14.7373   -0.4318   -5.7521 C   0  0  0  0  0  0  0  0  0  0  0  0
   16.5809   -1.4464   -4.6353 O   0  0  0  0  0  0  0  0  0  0  0  0
   17.8445   -1.3700   -5.2205 C   0  0  1  0  0  0  0  0  0  0  0  0
   18.2246   -0.0266   -5.3820 O   0  0  0  0  0  0  0  0  0  0  0  0
   18.8394   -1.9505   -4.2238 C   0  0  2  0  0  0  0  0  0  0  0  0
   19.1521   -1.0028   -3.2555 O   0  0  0  0  0  0  0  0  0  0  0  0
   20.0730   -2.4135   -4.9744 C   0  0  2  0  0  0  0  0  0  0  0  0
   20.8780   -1.2899   -5.1704 O   0  0  0  0  0  0  0  0  0  0  0  0
   19.6198   -2.8965   -6.3430 C   0  0  0  0  0  3  0  0  0  0  0  0
   20.4077   -2.2178   -7.4482 C   0  0  0  0  0  0  0  0  0  0  0  0
   19.6554   -2.4750   -8.7351 C   0  0  0  0  0  3  0  0  0  0  0  0
   19.1234   -3.7650   -8.6558 O   0  0  0  0  0  0  0  0  0  0  0  0
  2  1  1  6
  2  3  1  0
  3  4  1  0
  4  5  1  1
  4  6  1  0
  6  7  1  1
  6  8  1  0
  8  9  1  6
  8 10  1  0
 10 11  1  6
 11 12  1  0
 12 13  1  0
 13 14  1  6
 13 15  1  0
 15 16  1  0
 16 17  1  1
 16 18  1  0
 18 19  1  1
 18 20  1  0
 20 21  1  6
 20 22  1  0
 22 23  1  0
 23 24  1  0
 24 25  1  0
 10  2  1  0
M  RAD  3  12   2  22   2  24   2
M  END
>  <docking_score>  (3) 
-3.4460000000000002

$$$$
