
     RDKit          3D

 11 11  0  0  0  0  0  0  0  0999 V2000
    5.3086   -4.2690   -7.1610 O   0  0  0  0  0  0  0  0  0  0  0  0
    5.0106   -3.0881   -6.4835 C   0  0  0  0  0  0  0  0  0  0  0  0
    6.0218   -2.0198   -6.7145 C   0  0  2  0  0  0  0  0  0  0  0  0
    6.8695   -1.7264   -5.6178 N   0  0  0  0  0  0  0  0  0  0  0  0
    6.7721   -0.4107   -5.0837 C   0  0  0  0  0  0  0  0  0  0  0  0
    6.8889    0.6891   -6.0919 C   0  0  2  0  0  0  0  0  0  0  0  0
    6.3710    1.8561   -5.5304 O   0  0  0  0  0  0  0  0  0  0  0  0
    6.2791    0.3741   -7.4190 C   0  0  1  0  0  0  0  0  0  0  0  0
    7.2833    0.1878   -8.3634 O   0  0  0  0  0  0  0  0  0  0  0  0
    5.3982   -0.8530   -7.3867 C   0  0  1  0  0  0  0  0  0  0  0  0
    5.1617   -1.1975   -8.7366 O   0  0  0  0  0  0  0  0  0  0  0  0
  1  2  1  0
  3  2  1  1
  3  4  1  0
  4  5  1  0
  5  6  1  0
  6  7  1  1
  6  8  1  0
  8  9  1  6
  8 10  1  0
 10 11  1  6
 10  3  1  0
M  END
>  <docking_score>  (1) 
-3.9790000000000001

$$$$

     RDKit          3D

 11 11  0  0  0  0  0  0  0  0999 V2000
   15.4560   -1.5052   -2.8387 O   0  0  0  0  0  0  0  0  0  0  0  0
   16.4537   -2.4488   -2.6012 C   0  0  0  0  0  0  0  0  0  0  0  0
   16.5523   -3.4684   -3.6820 C   0  0  2  0  0  0  0  0  0  0  0  0
   15.9678   -3.1103   -4.9219 N   0  0  0  0  0  0  0  0  0  0  0  0
   14.8776   -3.9150   -5.3575 C   0  0  0  0  0  0  0  0  0  0  0  0
   15.1414   -5.3882   -5.3557 C   0  0  2  0  0  0  0  0  0  0  0  0
   13.9161   -6.0535   -5.3888 O   0  0  0  0  0  0  0  0  0  0  0  0
   16.0152   -5.8550   -4.2373 C   0  0  1  0  0  0  0  0  0  0  0  0
   17.2611   -6.2194   -4.7370 O   0  0  0  0  0  0  0  0  0  0  0  0
   16.2013   -4.8124   -3.1598 C   0  0  1  0  0  0  0  0  0  0  0  0
   17.2734   -5.2672   -2.3595 O   0  0  0  0  0  0  0  0  0  0  0  0
  1  2  1  0
  3  2  1  1
  3  4  1  0
  4  5  1  0
  5  6  1  0
  6  7  1  1
  6  8  1  0
  8  9  1  6
  8 10  1  0
 10 11  1  1
 10  3  1  0
M  END
>  <docking_score>  (2) 
-3.4390000000000001

$$$$

     RDKit          3D

 11 11  0  0  0  0  0  0  0  0999 V2000
   14.3088   -1.4769   -4.6377 O   0  0  0  0  0  0  0  0  0  0  0  0
   15.3566   -2.0210   -3.8972 C   0  0  0  0  0  0  0  0  0  0  0  0
   15.8472   -3.3118   -4.4543 C   0  0  2  0  0  0  0  0  0  0  0  0
   15.1491   -3.7989   -5.5868 N   0  0  0  0  0  0  0  0  0  0  0  0
   14.4766   -5.0426   -5.4226 C   0  0  0  0  0  0  0  0  0  0  0  0
   15.3193   -6.1458   -4.8635 C   0  0  2  0  0  0  0  0  0  0  0  0
   14.4723   -7.1393   -4.3725 O   0  0  0  0  0  0  0  0  0  0  0  0
   16.3239   -5.6998   -3.8515 C   0  0  1  0  0  0  0  0  0  0  0  0
   17.6024   -5.7814   -4.3933 O   0  0  0  0  0  0  0  0  0  0  0  0
   16.0836   -4.2902   -3.3638 C   0  0  1  0  0  0  0  0  0  0  0  0
   17.2597   -3.9099   -2.6789 O   0  0  0  0  0  0  0  0  0  0  0  0
  1  2  1  0
  3  2  1  1
  3  4  1  0
  4  5  1  0
  5  6  1  0
  6  7  1  1
  6  8  1  0
  8  9  1  6
  8 10  1  0
 10 11  1  6
 10  3  1  0
M  END
>  <docking_score>  (3) 
-3.4279999999999999

$$$$
