
     RDKit          3D

  9  9  0  0  0  0  0  0  0  0999 V2000
    6.8967   -1.1172   -5.0038 C   0  0  0  0  0  0  0  0  0  0  0  0
    6.6950   -2.1667   -5.8814 O   0  0  0  0  0  0  0  0  0  0  0  0
    5.9293   -1.8309   -6.9816 C   0  0  0  0  0  3  0  0  0  0  0  0
    5.1221   -0.7259   -6.7663 O   0  0  0  0  0  0  0  0  0  0  0  0
    5.6833    0.3831   -7.3735 C   0  0  2  0  0  0  0  0  0  0  0  0
    6.8679    0.0395   -8.2484 C   0  0  0  0  0  0  0  0  0  0  0  0
    5.9861    1.5066   -6.4319 C   0  0  0  0  0  3  0  0  0  0  0  0
    6.9447    1.1450   -5.3378 C   0  0  0  0  0  3  0  0  0  0  0  0
    7.6002   -0.0653   -5.5674 O   0  0  0  0  0  0  0  0  0  0  0  0
  1  2  1  0
  2  3  1  0
  3  4  1  0
  4  5  1  0
  5  6  1  1
  5  7  1  0
  7  8  1  0
  8  9  1  0
  9  1  1  0
M  RAD  3   3   2   7   2   8   2
M  END
>  <docking_score>  (1) 
-3.8319999999999999

$$$$

     RDKit          3D

  9  9  0  0  0  0  0  0  0  0999 V2000
    6.4405   -1.9089   -5.7541 C   0  0  0  0  0  0  0  0  0  0  0  0
    6.8755   -0.9954   -4.8114 O   0  0  0  0  0  0  0  0  0  0  0  0
    7.2833    0.2089   -5.3525 C   0  0  0  0  0  3  0  0  0  0  0  0
    7.6504    0.1107   -6.6847 O   0  0  0  0  0  0  0  0  0  0  0  0
    6.6338    0.6037   -7.4828 C   0  0  2  0  0  0  0  0  0  0  0  0
    5.5384    1.2810   -6.6903 C   0  0  0  0  0  0  0  0  0  0  0  0
    6.0890   -0.3903   -8.4603 C   0  0  0  0  0  3  0  0  0  0  0  0
    5.5127   -1.6194   -7.8245 C   0  0  0  0  0  3  0  0  0  0  0  0
    5.3212   -1.4812   -6.4492 O   0  0  0  0  0  0  0  0  0  0  0  0
  1  2  1  0
  2  3  1  0
  3  4  1  0
  4  5  1  0
  5  6  1  1
  5  7  1  0
  7  8  1  0
  8  9  1  0
  9  1  1  0
M  RAD  3   3   2   7   2   8   2
M  END
>  <docking_score>  (2) 
-3.694

$$$$

     RDKit          3D

  9  9  0  0  0  0  0  0  0  0999 V2000
    7.5117   13.8120    1.5846 C   0  0  0  0  0  0  0  0  0  0  0  0
    6.7436   13.1889    2.5511 O   0  0  0  0  0  0  0  0  0  0  0  0
    7.4347   12.9105    3.7149 C   0  0  0  0  0  3  0  0  0  0  0  0
    8.8055   12.8362    3.5295 O   0  0  0  0  0  0  0  0  0  0  0  0
    9.3978   14.0017    3.9816 C   0  0  2  0  0  0  0  0  0  0  0  0
    8.4344   14.9049    4.7184 C   0  0  0  0  0  0  0  0  0  0  0  0
   10.1713   14.7393    2.9337 C   0  0  0  0  0  3  0  0  0  0  0  0
    9.3504   15.1619    1.7528 C   0  0  0  0  0  3  0  0  0  0  0  0
    7.9775   15.0555    1.9791 O   0  0  0  0  0  0  0  0  0  0  0  0
  1  2  1  0
  2  3  1  0
  3  4  1  0
  4  5  1  0
  5  6  1  6
  5  7  1  0
  7  8  1  0
  8  9  1  0
  9  1  1  0
M  RAD  3   3   2   7   2   8   2
M  END
>  <docking_score>  (3) 
-3.2400000000000002

$$$$
