
     RDKit          3D

 76 77  0  0  0  0  0  0  0  0999 V2000
    7.3626   16.0175    8.9434 C   0  0  0  0  0  0  0  0  0  0  0  0
    7.9725   15.6343    7.6277 C   0  0  0  0  0  0  0  0  0  0  0  0
    7.1125   15.5356    6.4026 C   0  0  0  0  0  0  0  0  0  0  0  0
    9.4425   15.3499    7.5370 C   0  0  0  0  0  0  0  0  0  0  0  0
   10.2249   15.0417    8.7792 C   0  0  0  0  0  0  0  0  0  0  0  0
    9.5379   15.0217   10.1125 C   0  0  0  0  0  0  0  0  0  0  0  0
    9.2104   13.7128   10.7679 C   0  0  0  0  0  0  0  0  0  0  0  0
    7.9600   12.9763   10.3885 C   0  0  0  0  0  0  0  0  0  0  0  0
   10.1333   13.1405   11.8027 C   0  0  0  0  0  0  0  0  0  0  0  0
   10.4527   11.7287   11.4090 C   0  0  0  0  0  0  0  0  0  0  0  0
   11.2204   10.5025   11.8052 C   0  0  0  0  0  0  0  0  0  0  0  0
   12.1433    9.9302   12.8399 C   0  0  0  0  0  0  0  0  0  0  0  0
   12.4625    8.5185   12.4463 C   0  0  0  0  0  0  0  0  0  0  0  0
   12.8688   10.2304   14.1180 C   0  0  0  0  0  0  0  0  0  0  0  0
   13.2478    8.8121   13.8101 C   0  0  0  0  0  0  0  0  0  0  0  0
   14.0795    7.6971   14.3716 C   0  0  0  0  0  0  0  0  0  0  0  0
   13.9866    6.4910   13.4847 C   0  0  0  0  0  2  0  0  0  0  0  0
   14.9748    7.4073   15.5397 C   0  0  0  0  0  0  0  0  0  0  0  0
   15.5147    8.0781   16.7679 C   0  0  0  0  0  0  0  0  0  0  0  0
   15.4466    9.3958   17.4814 C   0  0  0  0  0  0  0  0  0  0  0  0
   16.2889    9.3515   18.7219 O   0  0  0  0  0  0  0  0  0  0  0  0
   14.8024   10.7437   17.3465 C   0  0  0  0  0  3  0  0  0  0  0  0
   13.8835   11.4912   16.4263 C   0  0  0  0  0  0  0  0  0  0  0  0
   13.6566   12.8802   16.9449 C   0  0  0  0  0  0  0  0  0  0  0  0
   13.1199   11.2884   15.1513 C   0  0  0  0  0  0  0  0  0  0  0  0
   12.8006   12.7002   15.5449 C   0  0  0  0  0  0  0  0  0  0  0  0
   12.0329   13.9264   15.1487 C   0  0  0  0  0  0  0  0  0  0  0  0
   11.1100   14.4988   14.1140 C   0  0  0  0  0  0  0  0  0  0  0  0
   10.3844   14.1985   12.8359 C   0  0  0  0  0  0  0  0  0  0  0  0
    9.6167   15.4248   12.4397 N   0  0  0  0  0  0  0  0  0  0  0  0
    8.1471   15.5147   12.7263 C   0  0  0  0  0  3  0  0  0  0  0  0
    7.1522   15.1612   11.6609 C   0  0  0  0  0  0  0  0  0  0  0  0
    6.1857   14.0353   11.8811 C   0  0  0  0  0  0  0  0  0  0  0  0
    5.6974   13.7259   13.2652 C   0  0  0  0  0  0  0  0  0  0  0  0
    6.4320   12.7319   14.1150 C   0  0  0  0  0  0  0  0  0  0  0  0
    4.4744   14.4106   13.7994 C   0  0  0  0  0  0  0  0  0  0  0  0
    4.0244   15.7129   13.2064 C   0  0  0  0  0  0  0  0  0  0  0  0
    3.7012   13.7929   14.9267 C   0  0  0  0  0  0  0  0  0  0  0  0
    4.2264   12.5671   15.6133 C   0  0  0  0  0  0  0  0  0  0  0  0
    3.3613   11.3479   15.7371 C   0  0  0  0  0  0  0  0  0  0  0  0
    3.7260   10.0918   15.0028 C   0  0  0  0  0  3  0  0  0  0  0  0
    4.8785   10.0920   14.0428 C   0  0  0  0  0  0  0  0  0  0  0  0
    4.6358   10.3159   12.5796 C   0  0  0  0  0  0  0  0  0  0  0  0
    4.4218    9.1449   11.6669 C   0  0  0  0  0  2  0  0  0  0  0  0
    4.6070   11.7109   12.0291 C   0  0  0  0  0  0  0  0  0  0  0  0
    4.4093   11.9331   10.5589 C   0  0  0  0  0  0  0  0  0  0  0  0
    4.4344   10.7683    9.6142 C   0  0  0  0  0  0  0  0  0  0  0  0
    5.6708   10.4760    8.8166 C   0  0  0  0  0  3  0  0  0  0  0  0
    5.5539   10.0146    7.3941 C   0  0  0  0  0  0  0  0  0  0  0  0
    4.7479   10.8112    6.4112 C   0  0  0  0  0  0  0  0  0  0  0  0
    5.3482   11.2064    5.0946 C   0  0  0  0  0  0  0  0  0  0  0  0
    5.7609   12.6285    4.8553 C   0  0  0  0  0  0  0  0  0  0  0  0
    5.5358   10.1795    4.0174 C   0  0  0  0  0  0  0  0  0  0  0  0
    4.7206   10.2536    2.7604 C   0  0  0  0  0  3  0  0  0  0  0  0
    3.7837   11.4043    2.5409 C   0  0  0  0  0  2  0  0  0  0  0  0
    6.5385    9.0785    4.1971 C   0  0  0  0  0  0  0  0  0  0  0  0
    6.0741    7.6648    4.3869 C   0  0  0  0  0  0  0  0  0  0  0  0
    4.6543    7.3888    4.7841 C   0  0  0  0  0  0  0  0  0  0  0  0
    3.9424    6.1874    4.2364 C   0  0  0  0  0  0  0  0  0  0  0  0
    3.9463    8.3140    5.7289 C   0  0  0  0  0  0  0  0  0  0  0  0
    3.6085    9.7107    5.2987 C   0  0  0  0  0  0  0  0  0  0  0  0
    3.6044   10.8246    6.3032 C   0  0  0  0  0  0  0  0  0  0  0  0
    2.3241   11.2240    6.9751 C   0  0  0  0  0  0  0  0  0  0  0  0
    4.8806   11.5392    6.6358 C   0  0  0  0  0  0  0  0  0  0  0  0
    5.0359   12.2176    7.9646 C   0  0  0  0  0  2  0  0  0  0  0  0
    6.0015   11.5755    5.6397 C   0  0  0  0  0  0  0  0  0  0  0  0
    7.2630   10.8076    5.9019 C   0  0  0  0  0  0  0  0  0  0  0  0
    8.2819   10.6445    4.8132 C   0  0  0  0  0  3  0  0  0  0  0  0
    8.3715   11.6589    3.7118 C   0  0  0  0  0  0  0  0  0  0  0  0
    7.6330   12.9593    3.8281 C   0  0  0  0  0  3  0  0  0  0  0  0
    7.0629   13.6101    2.6027 C   0  0  0  0  0  0  0  0  0  0  0  0
    6.1748   14.8116    2.7360 C   0  0  0  0  0  0  0  0  0  0  0  0
    7.3809   13.0594    1.2442 C   0  0  0  0  0  0  0  0  0  0  0  0
    8.7699   13.1821    0.6915 C   0  0  0  0  0  0  0  0  0  0  0  0
    6.3098   12.3861    0.4384 C   0  0  0  0  0  0  0  0  0  0  0  0
    4.8677   12.7214    0.6790 C   0  0  0  0  0  2  0  0  0  0  0  0
  1  2  1  0
  2  3  1  0
  2  4  1  0
  4  5  1  0
  5  6  1  0
  6  7  1  0
  7  8  1  0
  7  9  1  0
  9 10  1  0
 10 11  1  0
 11 12  1  0
 12 13  1  0
 12 14  1  0
 14 15  1  0
 15 16  1  0
 16 17  1  0
 16 18  1  0
 18 19  1  0
 19 20  1  0
 20 21  1  0
 20 22  1  0
 22 23  1  0
 23 24  1  0
 23 25  1  0
 25 26  1  0
 26 27  1  0
 27 28  1  0
 28 29  1  0
 29 30  1  0
 30 31  1  0
 31 32  1  0
 32 33  1  0
 33 34  1  0
 34 35  1  0
 34 36  1  0
 36 37  1  0
 36 38  1  0
 38 39  1  0
 39 40  1  0
 40 41  1  0
 41 42  1  0
 42 43  1  0
 43 44  1  0
 43 45  1  0
 45 46  1  0
 46 47  1  0
 47 48  1  0
 48 49  1  0
 49 50  1  0
 50 51  1  0
 51 52  1  0
 51 53  1  0
 53 54  1  0
 54 55  1  0
 53 56  1  0
 56 57  1  0
 57 58  1  0
 58 59  1  0
 58 60  1  0
 60 61  1  0
 61 62  1  0
 62 63  1  0
 62 64  1  0
 64 65  1  0
 64 66  1  0
 66 67  1  0
 67 68  1  0
 68 69  1  0
 69 70  1  0
 70 71  1  0
 71 72  1  0
 71 73  1  0
 73 74  1  0
 73 75  1  0
 75 76  1  0
 29  9  1  0
 25 14  1  0
M  RAD  8  17   3  22   2  31   2  41   2  44   3  48   2  54   2  55   3
M  RAD  4  65   3  68   2  70   2  76   3
M  END
>  <docking_score>  (1) 
29.382999999999999

$$$$
