
     RDKit          3D

 21 20  0  0  0  0  0  0  0  0999 V2000
   16.3474   -4.6527   -1.9304 C   0  0  0  0  0  0  0  0  0  0  0  0
   17.4817   -3.9308   -2.6253 C   0  0  0  0  0  0  0  0  0  0  0  0
   18.8200   -4.3634   -2.0760 C   0  0  0  0  0  0  0  0  0  0  0  0
   17.3379   -2.4734   -2.6062 C   0  0  0  0  0  0  0  0  0  0  0  0
   16.9621   -1.7843   -3.6668 C   0  0  0  0  0  0  0  0  0  0  0  0
   16.6606   -2.4193   -4.9409 C   0  0  0  0  0  0  0  0  0  0  0  0
   17.6629   -3.0336   -5.6687 O   0  0  0  0  0  0  0  0  0  0  0  0
   17.5975   -4.3906   -5.9128 C   0  0  0  0  0  0  0  0  0  0  0  0
   18.6813   -5.1658   -5.8667 C   0  0  0  0  0  0  0  0  0  0  0  0
   20.1951   -4.3998   -5.4845 Cl  0  0  0  0  0  0  0  0  0  0  0  0
   18.5536   -6.5305   -6.1225 C   0  0  0  0  0  0  0  0  0  0  0  0
   18.7796   -7.6404   -5.5412 C   0  0  0  0  0  0  0  0  0  0  0  0
   18.4159   -8.8819   -6.3658 C   0  0  0  0  0  0  0  0  0  0  0  0
   17.2237   -9.5429   -5.7083 C   0  0  0  0  0  0  0  0  0  0  0  0
   19.3150   -7.9447   -4.2487 C   0  0  0  0  0  0  0  0  0  0  0  0
   20.2934   -8.6810   -4.0389 O   0  0  0  0  0  0  0  0  0  0  0  0
   15.4459   -2.4137   -5.4045 C   0  0  0  0  0  0  0  0  0  0  0  0
   14.3284   -1.8006   -4.7239 C   0  0  0  0  0  0  0  0  0  0  0  0
   14.0231   -0.5273   -4.8631 C   0  0  0  0  0  0  0  0  0  0  0  0
   14.7985    0.2716   -5.6953 O   0  0  0  0  0  0  0  0  0  0  0  0
   12.9521    0.0475   -4.2070 O   0  0  0  0  0  0  0  0  0  0  0  0
  1  2  1  0
  2  3  1  0
  2  4  1  0
  4  5  2  3
  5  6  1  0
  6  7  1  0
  7  8  1  0
  8  9  2  3
  9 10  1  0
  9 11  1  0
 11 12  2  3
 12 13  1  0
 13 14  1  0
 12 15  1  0
 15 16  2  0
  6 17  2  3
 17 18  1  0
 18 19  2  3
 19 20  1  0
 19 21  1  0
M  END
>  <docking_score>  (1) 
-3.8439999999999999

$$$$

     RDKit          3D

 21 20  0  0  0  0  0  0  0  0999 V2000
    4.9682   14.4531    4.9141 C   0  0  0  0  0  0  0  0  0  0  0  0
    4.6693   12.9886    4.6766 C   0  0  0  0  0  0  0  0  0  0  0  0
    3.1850   12.7522    4.5326 C   0  0  0  0  0  0  0  0  0  0  0  0
    5.2592   12.1065    5.6861 C   0  0  0  0  0  0  0  0  0  0  0  0
    5.7166   10.9034    5.3959 C   0  0  0  0  0  0  0  0  0  0  0  0
    5.6709   10.3576    4.0478 C   0  0  0  0  0  0  0  0  0  0  0  0
    6.5967   10.7570    3.1017 O   0  0  0  0  0  0  0  0  0  0  0  0
    7.6788   11.5236    3.4847 C   0  0  0  0  0  0  0  0  0  0  0  0
    8.0143   12.6392    2.8360 C   0  0  0  0  0  0  0  0  0  0  0  0
    7.0311   13.0989    1.4772 Cl  0  0  0  0  0  0  0  0  0  0  0  0
    9.1181   13.3727    3.2691 C   0  0  0  0  0  0  0  0  0  0  0  0
    9.4664   14.5894    3.4080 C   0  0  0  0  0  0  0  0  0  0  0  0
   10.8827   14.7916    3.9620 C   0  0  0  0  0  0  0  0  0  0  0  0
   10.7685   15.0281    5.4526 C   0  0  0  0  0  0  0  0  0  0  0  0
    8.7732   15.8130    3.1400 C   0  0  0  0  0  0  0  0  0  0  0  0
    7.5576   15.9047    2.9004 O   0  0  0  0  0  0  0  0  0  0  0  0
    4.7587    9.4900    3.7227 C   0  0  0  0  0  0  0  0  0  0  0  0
    3.7469    9.0074    4.6346 C   0  0  0  0  0  0  0  0  0  0  0  0
    3.8016    7.8151    5.1907 C   0  0  0  0  0  0  0  0  0  0  0  0
    4.8703    6.9758    4.8980 O   0  0  0  0  0  0  0  0  0  0  0  0
    2.8281    7.3649    6.0610 O   0  0  0  0  0  0  0  0  0  0  0  0
  1  2  1  0
  2  3  1  0
  2  4  1  0
  4  5  2  3
  5  6  1  0
  6  7  1  0
  7  8  1  0
  8  9  2  3
  9 10  1  0
  9 11  1  0
 11 12  2  3
 12 13  1  0
 13 14  1  0
 12 15  1  0
 15 16  2  0
  6 17  2  3
 17 18  1  0
 18 19  2  3
 19 20  1  0
 19 21  1  0
M  END
>  <docking_score>  (2) 
-3.5649999999999999

$$$$

     RDKit          3D

 21 20  0  0  0  0  0  0  0  0999 V2000
   17.1094   -8.0842   -5.3309 C   0  0  0  0  0  0  0  0  0  0  0  0
   17.9328   -7.1270   -6.1654 C   0  0  0  0  0  0  0  0  0  0  0  0
   17.8199   -7.4510   -7.6359 C   0  0  0  0  0  0  0  0  0  0  0  0
   19.3313   -7.0432   -5.7388 C   0  0  0  0  0  0  0  0  0  0  0  0
   19.8774   -5.9187   -5.3164 C   0  0  0  0  0  0  0  0  0  0  0  0
   19.1315   -4.6715   -5.2412 C   0  0  0  0  0  0  0  0  0  0  0  0
   18.3739   -4.2458   -6.3167 O   0  0  0  0  0  0  0  0  0  0  0  0
   17.3035   -3.4000   -6.1071 C   0  0  0  0  0  0  0  0  0  0  0  0
   17.3989   -2.0844   -6.3023 C   0  0  0  0  0  0  0  0  0  0  0  0
   18.9342   -1.4658   -6.8356 Cl  0  0  0  0  0  0  0  0  0  0  0  0
   16.2834   -1.2797   -6.0742 C   0  0  0  0  0  0  0  0  0  0  0  0
   15.3691   -1.1333   -5.2003 C   0  0  0  0  0  0  0  0  0  0  0  0
   14.3595   -0.0201   -5.5088 C   0  0  0  0  0  0  0  0  0  0  0  0
   13.0554   -0.3744   -4.8271 C   0  0  0  0  0  0  0  0  0  0  0  0
   15.1085   -1.8224   -3.9727 C   0  0  0  0  0  0  0  0  0  0  0  0
   15.5799   -1.5094   -2.8667 O   0  0  0  0  0  0  0  0  0  0  0  0
   19.1721   -3.9478   -4.1619 C   0  0  0  0  0  0  0  0  0  0  0  0
   19.9315   -4.3019   -2.9846 C   0  0  0  0  0  0  0  0  0  0  0  0
   19.8908   -3.5962   -1.8736 C   0  0  0  0  0  0  0  0  0  0  0  0
   19.0891   -2.4621   -1.8165 O   0  0  0  0  0  0  0  0  0  0  0  0
   20.6215   -3.9448   -0.7545 O   0  0  0  0  0  0  0  0  0  0  0  0
  1  2  1  0
  2  3  1  0
  2  4  1  0
  4  5  2  3
  5  6  1  0
  6  7  1  0
  7  8  1  0
  8  9  2  3
  9 10  1  0
  9 11  1  0
 11 12  2  3
 12 13  1  0
 13 14  1  0
 12 15  1  0
 15 16  2  0
  6 17  2  3
 17 18  1  0
 18 19  2  3
 19 20  1  0
 19 21  1  0
M  END
>  <docking_score>  (3) 
-3.2360000000000002

$$$$
