
     RDKit          3D

 31 30  0  0  0  0  0  0  0  0999 V2000
    4.4759    5.3973    5.8416 C   0  0  0  0  0  0  0  0  0  0  0  0
    3.5886    5.3623    4.7741 O   0  0  0  0  0  0  0  0  0  0  0  0
    3.7243    6.5223    4.0223 C   0  0  0  0  0  3  0  0  0  0  0  0
    4.0254    7.6254    4.7827 O   0  0  0  0  0  0  0  0  0  0  0  0
    3.2268    8.7162    4.6071 C   0  0  2  0  0  0  0  0  0  0  0  0
    2.7873    8.8259    3.1855 C   0  0  0  0  0  0  0  0  0  0  0  0
    3.7693   10.0300    5.0437 C   0  0  0  0  0  3  0  0  0  0  0  0
    2.8652   10.8473    5.9177 C   0  0  1  0  0  0  0  0  0  0  0  0
    3.6779   11.3584    7.0784 C   0  0  0  0  0  3  0  0  0  0  0  0
    3.1710   12.6161    7.6805 C   0  0  0  0  0  0  0  0  0  0  0  0
    4.3002   13.5196    8.0531 C   0  0  2  0  0  0  0  0  0  0  0  0
    5.5903   13.1769    7.3894 C   0  0  0  0  0  0  0  0  0  0  0  0
    4.4084   13.6834    9.4342 O   0  0  0  0  0  0  0  0  0  0  0  0
    3.9690   14.9282    9.7350 N   0  0  0  0  0  0  0  0  0  0  0  0
    4.8987   15.4474   10.7425 C   0  0  0  0  0  0  0  0  0  0  0  0
    4.7828   14.6253   12.0068 C   0  0  0  0  0  0  0  0  0  0  0  0
    5.7904   15.1187   12.9966 C   0  0  1  0  0  0  0  0  0  0  0  0
    5.1663   15.3792   14.1938 O   0  0  0  0  0  0  0  0  0  0  0  0
    6.9302   14.1495   13.0966 C   0  0  2  0  0  0  0  0  0  0  0  0
    7.1133   13.6479   14.3719 O   0  0  0  0  0  0  0  0  0  0  0  0
    8.2088   14.7999   12.5957 C   0  0  0  0  0  3  0  0  0  0  0  0
    9.2267   13.8526   12.7606 O   0  0  0  0  0  0  0  0  0  0  0  0
   10.4146   14.4995   13.0910 C   0  0  0  0  0  0  0  0  0  0  0  0
   11.5491   13.5242   13.1133 C   0  0  0  0  0  3  0  0  0  0  0  0
   12.0479   13.3153   11.6962 C   0  0  0  0  0  3  0  0  0  0  0  0
   12.3898   11.8459   11.4579 C   0  0  0  0  0  3  0  0  0  0  0  0
   11.2722   11.1883   10.9303 O   0  0  0  0  0  0  0  0  0  0  0  0
    2.2653   12.0367    5.2082 C   0  0  0  0  0  0  0  0  0  0  0  0
    2.8098   12.0800    3.8013 C   0  0  0  0  0  3  0  0  0  0  0  0
    3.3983   13.2916    3.5280 O   0  0  0  0  0  0  0  0  0  0  0  0
    3.6264   13.4747    2.2453 O   0  0  0  0  0  0  0  0  0  0  0  0
  1  2  1  0
  2  3  1  0
  3  4  1  0
  4  5  1  0
  5  6  1  6
  5  7  1  0
  8  7  1  6
  8  9  1  0
  9 10  1  0
 10 11  1  0
 11 12  1  1
 11 13  1  0
 13 14  1  0
 14 15  1  0
 15 16  1  0
 16 17  1  0
 17 18  1  1
 17 19  1  0
 19 20  1  1
 19 21  1  0
 21 22  1  0
 22 23  1  0
 23 24  1  0
 24 25  1  0
 25 26  1  0
 26 27  1  0
  8 28  1  0
 28 29  1  0
 29 30  1  0
 30 31  1  0
M  RAD  8   3   2   7   2   9   2  21   2  24   2  25   2  26   2  29   2
M  END
>  <docking_score>  (1) 
-1.5329999999999999

$$$$
