
     RDKit          3D

 34 36  0  0  0  0  0  0  0  0999 V2000
    9.0022   13.2889    3.4265 O   0  0  0  0  0  0  0  0  0  0  0  0
    8.0846   14.1351    3.5127 N   0  0  0  0  0  4  0  0  0  0  0  0
    7.5541   14.6085    2.3427 O   0  0  0  0  0  1  0  0  0  0  0  0
    7.5790   14.6168    4.7348 C   0  0  0  0  0  0  0  0  0  0  0  0
    6.3617   14.2986    5.1150 C   0  0  0  0  0  0  0  0  0  0  0  0
    5.7161   14.7214    6.3431 C   0  0  0  0  0  0  0  0  0  0  0  0
    4.6460   15.5335    6.3735 C   0  0  0  0  0  0  0  0  0  0  0  0
    4.1179   15.8583    7.7235 C   0  0  0  0  0  0  0  0  0  0  0  0
    2.9692   15.0211    8.0378 N   0  0  0  0  0  2  0  0  0  0  0  0
    2.6915   14.2215    6.8901 C   0  0  0  0  0  0  0  0  0  0  0  0
    2.6155   14.7123    5.7038 N   0  0  0  0  0  0  0  0  0  0  0  0
    2.3400   13.8859    4.6052 C   0  0  0  0  0  0  0  0  0  0  0  0
    3.1656   13.6673    3.6226 N   0  0  0  0  0  0  0  0  0  0  0  0
    4.4661   14.2453    3.5401 C   0  0  0  0  0  3  0  0  0  0  0  0
    5.5474   13.4184    4.2242 C   0  0  2  0  0  0  0  0  0  0  0  0
    4.9182   12.2945    5.0350 C   0  0  0  0  0  0  0  0  0  0  0  0
    5.8734   11.4667    5.7074 N   0  0  0  0  0  0  0  0  0  0  0  0
    5.9156   10.1265    5.1379 C   0  0  0  0  0  0  0  0  0  0  0  0
    4.5283    9.5813    5.0494 C   0  0  0  0  0  0  0  0  0  0  0  0
    4.0069    9.0857    6.1739 C   0  0  0  0  0  0  0  0  0  0  0  0
    4.7608    9.0765    7.4439 C   0  0  0  0  0  3  0  0  0  0  0  0
    3.8679    9.2753    8.6475 C   0  0  0  0  0  3  0  0  0  0  0  0
    4.7367    9.1015    9.8770 C   0  0  2  0  0  0  0  0  0  0  0  0
    3.9058    8.5532   11.0768 C   0  0  0  0  0  0  0  0  0  0  0  0
    4.5180    9.9647   11.0665 C   0  0  1  0  0  0  0  0  0  0  0  0
    5.6971   10.0886   12.0051 C   0  0  0  0  0  0  0  0  0  0  0  0
    6.0994   11.5366   12.1924 C   0  0  0  0  0  0  0  0  0  0  0  0
    6.3664   11.7279   13.6731 C   0  0  0  0  0  0  0  0  0  0  0  0
    2.6324    8.5264    6.1312 C   0  0  0  0  0  0  0  0  0  0  0  0
    2.3663    7.9117    4.7905 C   0  0  0  0  0  0  0  0  0  0  0  0
    2.9014    8.4127    3.6912 C   0  0  0  0  0  0  0  0  0  0  0  0
    3.7769    9.5983    3.7772 C   0  0  2  0  0  0  0  0  0  0  0  0
    4.7201    9.5130    2.5699 C   0  0  0  0  0  0  0  0  0  0  0  0
    4.0354    9.9283    1.4310 O   0  0  0  0  0  1  0  0  0  0  0  0
  1  2  2  0
  2  3  1  0
  2  4  1  0
  4  5  2  3
  5  6  1  0
  6  7  2  3
  7  8  1  0
  8  9  1  0
  9 10  1  0
 10 11  2  3
 11 12  1  0
 12 13  2  3
 13 14  1  0
 14 15  1  0
 15 16  1  1
 16 17  1  0
 17 18  1  0
 18 19  1  0
 19 20  2  0
 20 21  1  0
 21 22  1  0
 23 22  1  6
 23 24  1  0
 24 25  1  0
 25 26  1  1
 26 27  1  0
 27 28  1  0
 20 29  1  0
 29 30  1  0
 30 31  2  0
 31 32  1  0
 32 33  1  6
 33 34  1  0
 15  5  1  0
 32 19  1  0
 25 23  1  0
M  CHG  4   2   1   3  -1   9   1  34  -1
M  RAD  4   9   3  14   2  21   2  22   2
M  END
>  <docking_score>  (1) 
-3.2789999999999999

$$$$

     RDKit          3D

 34 36  0  0  0  0  0  0  0  0999 V2000
   17.5281   -4.0522   -0.7886 O   0  0  0  0  0  0  0  0  0  0  0  0
   16.5831   -3.9639   -1.6038 N   0  0  0  0  0  4  0  0  0  0  0  0
   15.4671   -4.7176   -1.3565 O   0  0  0  0  0  1  0  0  0  0  0  0
   16.6107   -3.1405   -2.7450 C   0  0  0  0  0  0  0  0  0  0  0  0
   17.7544   -2.6701   -3.1901 C   0  0  0  0  0  0  0  0  0  0  0  0
   17.9297   -1.8154   -4.3486 C   0  0  0  0  0  0  0  0  0  0  0  0
   18.3605   -0.5449   -4.2711 C   0  0  0  0  0  0  0  0  0  0  0  0
   18.4808    0.1780   -5.5633 C   0  0  0  0  0  0  0  0  0  0  0  0
   19.8623    0.1775   -6.0223 N   0  0  0  0  0  2  0  0  0  0  0  0
   20.6506   -0.4558   -5.0168 C   0  0  0  0  0  0  0  0  0  0  0  0
   20.5607   -0.1522   -3.7703 N   0  0  0  0  0  0  0  0  0  0  0  0
   21.3571   -0.8029   -2.8173 C   0  0  0  0  0  0  0  0  0  0  0  0
   20.8951   -1.5630   -1.8667 N   0  0  0  0  0  0  0  0  0  0  0  0
   19.5086   -1.8325   -1.6741 C   0  0  0  0  0  3  0  0  0  0  0  0
   19.0049   -3.0368   -2.4596 C   0  0  2  0  0  0  0  0  0  0  0  0
   20.0661   -3.5055   -3.4447 C   0  0  0  0  0  0  0  0  0  0  0  0
   20.2474   -4.9256   -3.4615 N   0  0  0  0  0  0  0  0  0  0  0  0
   18.9714   -5.6284   -3.4727 C   0  0  0  0  0  0  0  0  0  0  0  0
   18.9280   -6.5590   -4.6397 C   0  0  0  0  0  0  0  0  0  0  0  0
   17.8398   -6.5020   -5.4107 C   0  0  0  0  0  0  0  0  0  0  0  0
   16.7330   -5.5660   -5.1277 C   0  0  0  0  0  3  0  0  0  0  0  0
   16.1733   -4.9363   -6.3831 C   0  0  0  0  0  3  0  0  0  0  0  0
   17.3026   -4.1608   -7.0309 C   0  0  2  0  0  0  0  0  0  0  0  0
   16.7934   -3.3564   -8.2655 C   0  0  0  0  0  0  0  0  0  0  0  0
   17.7745   -4.5352   -8.3892 C   0  0  1  0  0  0  0  0  0  0  0  0
   19.1755   -4.0851   -8.7375 C   0  0  0  0  0  0  0  0  0  0  0  0
   19.7052   -3.1007   -7.7158 C   0  0  0  0  0  0  0  0  0  0  0  0
   20.1740   -1.8812   -8.4863 C   0  0  0  0  0  0  0  0  0  0  0  0
   17.7503   -7.4143   -6.5785 C   0  0  0  0  0  0  0  0  0  0  0  0
   18.4487   -8.7061   -6.2795 C   0  0  0  0  0  0  0  0  0  0  0  0
   19.5186   -8.7407   -5.5049 C   0  0  0  0  0  0  0  0  0  0  0  0
   20.0409   -7.4895   -4.9209 C   0  0  2  0  0  0  0  0  0  0  0  0
   20.7672   -7.8978   -3.6324 C   0  0  0  0  0  0  0  0  0  0  0  0
   21.3613   -9.1424   -3.8233 O   0  0  0  0  0  1  0  0  0  0  0  0
  1  2  2  0
  2  3  1  0
  2  4  1  0
  4  5  2  3
  5  6  1  0
  6  7  2  3
  7  8  1  0
  8  9  1  0
  9 10  1  0
 10 11  2  3
 11 12  1  0
 12 13  2  3
 13 14  1  0
 14 15  1  0
 15 16  1  6
 16 17  1  0
 17 18  1  0
 18 19  1  0
 19 20  2  0
 20 21  1  0
 21 22  1  0
 23 22  1  6
 23 24  1  0
 24 25  1  0
 25 26  1  1
 26 27  1  0
 27 28  1  0
 20 29  1  0
 29 30  1  0
 30 31  2  0
 31 32  1  0
 32 33  1  1
 33 34  1  0
 15  5  1  0
 32 19  1  0
 25 23  1  0
M  CHG  4   2   1   3  -1   9   1  34  -1
M  RAD  4   9   3  14   2  21   2  22   2
M  END
>  <docking_score>  (2) 
-2.0270000000000001

$$$$

     RDKit          3D

 34 36  0  0  0  0  0  0  0  0999 V2000
   16.2410   -3.2261   -1.1756 O   0  0  0  0  0  0  0  0  0  0  0  0
   16.3491   -1.9946   -1.3687 N   0  0  0  0  0  4  0  0  0  0  0  0
   15.5739   -1.1675   -0.6009 O   0  0  0  0  0  1  0  0  0  0  0  0
   17.2150   -1.4268   -2.3220 C   0  0  0  0  0  0  0  0  0  0  0  0
   17.9017   -2.2014   -3.1319 C   0  0  0  0  0  0  0  0  0  0  0  0
   18.8257   -1.7545   -4.1567 C   0  0  0  0  0  0  0  0  0  0  0  0
   20.1478   -1.9906   -4.1134 C   0  0  0  0  0  0  0  0  0  0  0  0
   20.9383   -1.4578   -5.2526 C   0  0  0  0  0  0  0  0  0  0  0  0
   21.2053   -2.5080   -6.2247 N   0  0  0  0  0  2  0  0  0  0  0  0
   20.6781   -3.7249   -5.7006 C   0  0  0  0  0  0  0  0  0  0  0  0
   20.9040   -4.1182   -4.4972 N   0  0  0  0  0  0  0  0  0  0  0  0
   20.3635   -5.3231   -4.0261 C   0  0  0  0  0  0  0  0  0  0  0  0
   19.4908   -5.4126   -3.0642 N   0  0  0  0  0  0  0  0  0  0  0  0
   18.9696   -4.2860   -2.3631 C   0  0  0  0  0  3  0  0  0  0  0  0
   17.7316   -3.6808   -3.0127 C   0  0  2  0  0  0  0  0  0  0  0  0
   17.5050   -4.2922   -4.3879 C   0  0  0  0  0  0  0  0  0  0  0  0
   16.7525   -5.5099   -4.3585 N   0  0  0  0  0  0  0  0  0  0  0  0
   15.6472   -5.4795   -5.3070 C   0  0  0  0  0  0  0  0  0  0  0  0
   15.9955   -4.5784   -6.4456 C   0  0  0  0  0  0  0  0  0  0  0  0
   17.0713   -4.9091   -7.1635 C   0  0  0  0  0  0  0  0  0  0  0  0
   17.8782   -6.1059   -6.8509 C   0  0  0  0  0  3  0  0  0  0  0  0
   19.1066   -6.2191   -7.7250 C   0  0  0  0  0  3  0  0  0  0  0  0
   19.6489   -7.6229   -7.5471 C   0  0  2  0  0  0  0  0  0  0  0  0
   21.1534   -7.6972   -7.9490 C   0  0  0  0  0  0  0  0  0  0  0  0
   20.0466   -8.4196   -8.7367 C   0  0  1  0  0  0  0  0  0  0  0  0
   20.0789   -9.9178   -8.5343 C   0  0  0  0  0  0  0  0  0  0  0  0
   18.6924  -10.5165   -8.6462 C   0  0  0  0  0  0  0  0  0  0  0  0
   18.8686  -12.0225   -8.6857 C   0  0  0  0  0  0  0  0  0  0  0  0
   17.4592   -4.0378   -8.3012 C   0  0  0  0  0  0  0  0  0  0  0  0
   17.1071   -2.6119   -8.0031 C   0  0  0  0  0  0  0  0  0  0  0  0
   16.0429   -2.3077   -7.2814 C   0  0  0  0  0  0  0  0  0  0  0  0
   15.1811   -3.3854   -6.7569 C   0  0  2  0  0  0  0  0  0  0  0  0
   14.5178   -2.8169   -5.4954 C   0  0  0  0  0  0  0  0  0  0  0  0
   15.1648   -1.6374   -5.1367 O   0  0  0  0  0  1  0  0  0  0  0  0
  1  2  2  0
  2  3  1  0
  2  4  1  0
  4  5  2  3
  5  6  1  0
  6  7  2  3
  7  8  1  0
  8  9  1  0
  9 10  1  0
 10 11  2  3
 11 12  1  0
 12 13  2  3
 13 14  1  0
 14 15  1  0
 15 16  1  6
 16 17  1  0
 17 18  1  0
 18 19  1  0
 19 20  2  0
 20 21  1  0
 21 22  1  0
 23 22  1  6
 23 24  1  0
 24 25  1  0
 25 26  1  1
 26 27  1  0
 27 28  1  0
 20 29  1  0
 29 30  1  0
 30 31  2  0
 31 32  1  0
 32 33  1  1
 33 34  1  0
 15  5  1  0
 32 19  1  0
 25 23  1  0
M  CHG  4   2   1   3  -1   9   1  34  -1
M  RAD  4   9   3  14   2  21   2  22   2
M  END
>  <docking_score>  (3) 
-1.9370000000000001

$$$$
