
     RDKit          3D

 24 23  0  0  0  0  0  0  0  0999 V2000
   18.9456   -9.5121   -8.3069 C   0  0  0  0  0  0  0  0  0  0  0  0
   18.2802   -8.2161   -7.8788 C   0  0  0  0  0  0  0  0  0  0  0  0
   18.5159   -7.9800   -6.4084 C   0  0  2  0  0  0  0  0  0  0  0  0
   17.4602   -8.6989   -5.5865 C   0  0  0  0  0  0  0  0  0  0  0  0
   18.4905   -6.5249   -6.1232 C   0  0  0  0  0  0  0  0  0  0  0  0
   18.8062   -6.0801   -4.9891 O   0  0  0  0  0  0  0  0  0  0  0  0
   18.1063   -5.6137   -7.1369 N   0  0  0  0  0  0  0  0  0  0  0  0
   18.0897   -4.1769   -6.8277 C   0  0  0  0  0  3  0  0  0  0  0  0
   18.6441   -3.4668   -8.0453 C   0  0  0  0  0  3  0  0  0  0  0  0
   20.1002   -3.1409   -7.8153 C   0  0  0  0  0  0  0  0  0  0  0  0
   20.3583   -2.5127   -6.4804 C   0  0  0  0  0  0  0  0  0  0  0  0
   20.0611   -1.0363   -6.5449 C   0  0  0  0  0  3  0  0  0  0  0  0
   18.9479   -0.7700   -5.5823 C   0  0  0  0  0  0  0  0  0  0  0  0
   18.8678   -1.5290   -4.5247 C   0  0  0  0  0  0  0  0  0  0  0  0
   17.9001   -1.4973   -3.4356 C   0  0  2  0  0  0  0  0  0  0  0  0
   18.5731   -1.6145   -2.1105 C   0  0  0  0  0  2  0  0  0  0  0  0
   16.6809   -2.3240   -3.5945 C   0  0  0  0  0  3  0  0  0  0  0  0
   15.3797   -1.6288   -3.6050 C   0  0  0  0  0  0  0  0  0  0  0  0
   14.6306   -1.6546   -4.8935 C   0  0  1  0  0  0  0  0  0  0  0  0
   13.6135   -0.5046   -4.9151 C   0  0  0  0  0  2  0  0  0  0  0  0
   15.4981   -1.5226   -6.1253 C   0  0  0  0  0  0  0  0  0  0  0  0
   13.9456   -2.8974   -5.0253 O   0  0  0  0  0  0  0  0  0  0  0  0
   14.4707   -3.8695   -5.8537 C   0  0  0  0  0  0  0  0  0  0  0  0
   14.9175   -4.9102   -5.3142 O   0  0  0  0  0  0  0  0  0  0  0  0
  1  2  1  0
  2  3  1  0
  3  4  1  1
  3  5  1  0
  5  6  2  0
  5  7  1  0
  7  8  1  0
  8  9  1  0
  9 10  1  0
 10 11  1  0
 11 12  1  0
 12 13  1  0
 13 14  2  3
 14 15  1  0
 15 16  1  1
 15 17  1  0
 17 18  1  0
 18 19  1  0
 19 20  1  1
 19 21  1  0
 19 22  1  0
 22 23  1  0
 23 24  2  0
M  RAD  6   8   2   9   2  12   2  16   3  17   2  20   3
M  END
>  <docking_score>  (1) 
-3.2850000000000001

$$$$

     RDKit          3D

 24 23  0  0  0  0  0  0  0  0999 V2000
   17.4767   -5.1232   -3.3712 C   0  0  0  0  0  0  0  0  0  0  0  0
   17.5419   -3.6097   -3.4763 C   0  0  0  0  0  0  0  0  0  0  0  0
   17.1827   -2.9877   -2.1507 C   0  0  2  0  0  0  0  0  0  0  0  0
   16.6681   -4.0506   -1.1955 C   0  0  0  0  0  0  0  0  0  0  0  0
   16.1585   -1.9341   -2.3517 C   0  0  0  0  0  0  0  0  0  0  0  0
   15.8234   -1.1669   -1.4121 O   0  0  0  0  0  0  0  0  0  0  0  0
   15.5423   -1.7813   -3.6175 N   0  0  0  0  0  0  0  0  0  0  0  0
   14.5304   -0.7293   -3.7896 C   0  0  0  0  0  3  0  0  0  0  0  0
   13.9239   -0.9339   -5.1624 C   0  0  0  0  0  3  0  0  0  0  0  0
   14.5618   -2.1351   -5.8178 C   0  0  0  0  0  0  0  0  0  0  0  0
   15.3506   -1.7868   -7.0424 C   0  0  0  0  0  0  0  0  0  0  0  0
   16.8114   -1.6647   -6.6912 C   0  0  0  0  0  3  0  0  0  0  0  0
   17.4530   -2.9752   -7.0197 C   0  0  0  0  0  0  0  0  0  0  0  0
   16.8436   -3.7501   -7.8736 C   0  0  0  0  0  0  0  0  0  0  0  0
   17.2329   -5.0633   -8.3711 C   0  0  2  0  0  0  0  0  0  0  0  0
   16.0398   -5.8780   -8.7388 C   0  0  0  0  0  2  0  0  0  0  0  0
   18.2768   -5.7889   -7.6101 C   0  0  0  0  0  3  0  0  0  0  0  0
   17.8321   -6.7118   -6.5484 C   0  0  0  0  0  0  0  0  0  0  0  0
   18.6650   -7.9313   -6.3457 C   0  0  1  0  0  0  0  0  0  0  0  0
   18.3436   -8.5463   -4.9760 C   0  0  0  0  0  2  0  0  0  0  0  0
   18.4650   -9.0072   -7.3896 C   0  0  0  0  0  0  0  0  0  0  0  0
   20.0460   -7.5832   -6.3981 O   0  0  0  0  0  0  0  0  0  0  0  0
   20.7093   -7.2870   -5.2237 C   0  0  0  0  0  0  0  0  0  0  0  0
   20.5018   -6.1616   -4.7098 O   0  0  0  0  0  0  0  0  0  0  0  0
  1  2  1  0
  2  3  1  0
  3  4  1  1
  3  5  1  0
  5  6  2  0
  5  7  1  0
  7  8  1  0
  8  9  1  0
  9 10  1  0
 10 11  1  0
 11 12  1  0
 12 13  1  0
 13 14  2  3
 14 15  1  0
 15 16  1  1
 15 17  1  0
 17 18  1  0
 18 19  1  0
 19 20  1  1
 19 21  1  0
 19 22  1  0
 22 23  1  0
 23 24  2  0
M  RAD  6   8   2   9   2  12   2  16   3  17   2  20   3
M  END
>  <docking_score>  (2) 
-3.2690000000000001

$$$$

     RDKit          3D

 24 23  0  0  0  0  0  0  0  0999 V2000
   14.7224   -1.6574   -4.5815 C   0  0  0  0  0  0  0  0  0  0  0  0
   14.4615   -3.0090   -5.2226 C   0  0  0  0  0  0  0  0  0  0  0  0
   15.5690   -3.3396   -6.1907 C   0  0  2  0  0  0  0  0  0  0  0  0
   15.2686   -2.7422   -7.5544 C   0  0  0  0  0  0  0  0  0  0  0  0
   15.7230   -4.8111   -6.2937 C   0  0  0  0  0  0  0  0  0  0  0  0
   15.2083   -5.4525   -7.2462 O   0  0  0  0  0  0  0  0  0  0  0  0
   16.4593   -5.5141   -5.3093 N   0  0  0  0  0  0  0  0  0  0  0  0
   16.5965   -6.9720   -5.4352 C   0  0  0  0  0  3  0  0  0  0  0  0
   17.8404   -7.2188   -6.2637 C   0  0  0  0  0  3  0  0  0  0  0  0
   18.9115   -7.8264   -5.3903 C   0  0  0  0  0  0  0  0  0  0  0  0
   19.8292   -6.8062   -4.7899 C   0  0  0  0  0  0  0  0  0  0  0  0
   20.6956   -7.4539   -3.7401 C   0  0  0  0  0  3  0  0  0  0  0  0
   21.3535   -6.3516   -2.9726 C   0  0  0  0  0  0  0  0  0  0  0  0
   20.6758   -5.2521   -2.7915 C   0  0  0  0  0  0  0  0  0  0  0  0
   21.0621   -4.0330   -2.0930 C   0  0  2  0  0  0  0  0  0  0  0  0
   20.1609   -3.7635   -0.9364 C   0  0  0  0  0  2  0  0  0  0  0  0
   21.3805   -2.8511   -2.9279 C   0  0  0  0  0  3  0  0  0  0  0  0
   20.2960   -2.2831   -3.7513 C   0  0  0  0  0  0  0  0  0  0  0  0
   19.7027   -1.0044   -3.2665 C   0  0  1  0  0  0  0  0  0  0  0  0
   18.2738   -1.2623   -2.7672 C   0  0  0  0  0  2  0  0  0  0  0  0
   20.4693   -0.3448   -2.1420 C   0  0  0  0  0  0  0  0  0  0  0  0
   19.6706   -0.0568   -4.3305 O   0  0  0  0  0  0  0  0  0  0  0  0
   19.3158   -0.4796   -5.5963 C   0  0  0  0  0  0  0  0  0  0  0  0
   18.1527   -0.9224   -5.7538 O   0  0  0  0  0  0  0  0  0  0  0  0
  1  2  1  0
  2  3  1  0
  3  4  1  6
  3  5  1  0
  5  6  2  0
  5  7  1  0
  7  8  1  0
  8  9  1  0
  9 10  1  0
 10 11  1  0
 11 12  1  0
 12 13  1  0
 13 14  2  3
 14 15  1  0
 15 16  1  1
 15 17  1  0
 17 18  1  0
 18 19  1  0
 19 20  1  1
 19 21  1  0
 19 22  1  0
 22 23  1  0
 23 24  2  0
M  RAD  6   8   2   9   2  12   2  16   3  17   2  20   3
M  END
>  <docking_score>  (3) 
-2.931

$$$$
