
     RDKit          3D

 24 25  0  0  0  0  0  0  0  0999 V2000
   13.2237   -0.6521   -4.9173 C   0  0  0  0  0  0  0  0  0  0  0  0
   14.5938   -0.8157   -4.2965 C   0  0  0  0  0  3  0  0  0  0  0  0
   15.0352   -2.2524   -4.3232 C   0  0  1  0  0  0  0  0  0  0  0  0
   14.6486   -2.9809   -5.5918 C   0  0  2  0  0  0  0  0  0  0  0  0
   13.6615   -3.9134   -5.2764 O   0  0  0  0  0  0  0  0  0  0  0  0
   15.8202   -3.7469   -6.1756 C   0  0  0  0  0  0  0  0  0  0  0  0
   16.7647   -2.9104   -6.7663 O   0  0  0  0  0  0  0  0  0  0  0  0
   17.7794   -2.6381   -5.9749 O   0  0  0  0  0  0  0  0  0  0  0  0
   17.3314   -1.6417   -5.0806 C   0  0  1  0  0  0  0  0  0  0  0  0
   16.4766   -0.8088   -5.8373 O   0  0  0  0  0  0  0  0  0  0  0  0
   16.4986   -2.3327   -4.0566 C   0  0  1  0  0  0  0  0  0  0  0  0
   16.8565   -2.1059   -2.6999 N   0  0  0  0  0  0  0  0  0  0  0  0
   17.0878   -3.3697   -2.0472 C   0  0  0  0  0  3  0  0  0  0  0  0
   18.5702   -3.6694   -2.0076 C   0  0  0  0  0  0  0  0  0  0  0  0
   18.7454   -5.1137   -2.4156 C   0  0  2  0  0  0  0  0  0  0  0  0
   19.6518   -5.4199   -3.4284 O   0  0  0  0  0  0  0  0  0  0  0  0
   18.3207   -5.3977   -3.8386 C   0  0  1  0  0  0  0  0  0  0  0  0
   17.6382   -6.5764   -4.0107 O   0  0  0  0  0  0  0  0  0  0  0  0
   18.1843   -7.3939   -4.9841 C   0  0  1  0  0  0  0  0  0  0  0  0
   18.9176   -8.4428   -4.4518 O   0  0  0  0  0  0  0  0  0  0  0  0
   17.1042   -7.8454   -5.9297 C   0  0  2  0  0  0  0  0  0  0  0  0
   17.1402   -9.2328   -6.0178 O   0  0  0  0  0  0  0  0  0  0  0  0
   17.4071   -7.3224   -7.3314 C   0  0  0  0  0  3  0  0  0  0  0  0
   18.3346   -6.2772   -7.3020 O   0  0  0  0  0  0  0  0  0  0  0  0
  1  2  1  0
  3  2  1  6
  3  4  1  0
  4  5  1  1
  4  6  1  0
  6  7  1  0
  7  8  1  0
  8  9  1  0
  9 10  1  6
  9 11  1  0
 11 12  1  1
 12 13  1  0
 13 14  1  0
 15 14  1  6
 15 16  1  0
 15 17  1  0
 17 18  1  1
 18 19  1  0
 19 20  1  1
 19 21  1  0
 21 22  1  6
 21 23  1  0
 23 24  1  0
 11  3  1  0
 17 16  1  0
M  RAD  3   2   2  13   2  23   2
M  END
>  <docking_score>  (1) 
-4.1429999999999998

$$$$

     RDKit          3D

 24 25  0  0  0  0  0  0  0  0999 V2000
   15.9428   -2.2948   -8.2144 C   0  0  0  0  0  0  0  0  0  0  0  0
   16.4840   -3.6336   -7.7626 C   0  0  0  0  0  3  0  0  0  0  0  0
   16.2796   -3.8332   -6.2867 C   0  0  1  0  0  0  0  0  0  0  0  0
   14.8246   -3.8309   -5.8715 C   0  0  2  0  0  0  0  0  0  0  0  0
   14.5806   -2.6687   -5.1412 O   0  0  0  0  0  0  0  0  0  0  0  0
   14.4993   -5.0054   -4.9686 C   0  0  0  0  0  0  0  0  0  0  0  0
   14.4550   -6.2145   -5.6595 O   0  0  0  0  0  0  0  0  0  0  0  0
   15.5747   -6.8993   -5.5729 O   0  0  0  0  0  0  0  0  0  0  0  0
   16.4736   -6.3112   -6.4891 C   0  0  1  0  0  0  0  0  0  0  0  0
   15.6876   -5.9266   -7.5986 O   0  0  0  0  0  0  0  0  0  0  0  0
   16.9848   -5.0688   -5.8451 C   0  0  1  0  0  0  0  0  0  0  0  0
   18.3980   -4.9371   -5.7699 N   0  0  0  0  0  0  0  0  0  0  0  0
   19.0113   -6.2251   -5.9742 C   0  0  0  0  0  3  0  0  0  0  0  0
   19.5533   -6.7550   -4.6648 C   0  0  0  0  0  0  0  0  0  0  0  0
   20.5661   -5.7527   -4.1619 C   0  0  2  0  0  0  0  0  0  0  0  0
   21.3623   -6.0930   -3.0705 O   0  0  0  0  0  0  0  0  0  0  0  0
   20.2886   -5.2621   -2.7589 C   0  0  1  0  0  0  0  0  0  0  0  0
   20.4964   -3.9186   -2.5680 O   0  0  0  0  0  0  0  0  0  0  0  0
   19.5474   -3.3226   -1.7567 C   0  0  1  0  0  0  0  0  0  0  0  0
   20.0882   -2.8134   -0.5864 O   0  0  0  0  0  0  0  0  0  0  0  0
   18.7761   -2.3005   -2.5473 C   0  0  2  0  0  0  0  0  0  0  0  0
   18.6697   -1.1388   -1.7902 O   0  0  0  0  0  0  0  0  0  0  0  0
   17.3496   -2.7988   -2.7640 C   0  0  0  0  0  3  0  0  0  0  0  0
   16.9199   -3.6062   -1.7071 O   0  0  0  0  0  0  0  0  0  0  0  0
  1  2  1  0
  3  2  1  6
  3  4  1  0
  4  5  1  1
  4  6  1  0
  6  7  1  0
  7  8  1  0
  8  9  1  0
  9 10  1  6
  9 11  1  0
 11 12  1  6
 12 13  1  0
 13 14  1  0
 15 14  1  1
 15 16  1  0
 15 17  1  0
 17 18  1  6
 18 19  1  0
 19 20  1  1
 19 21  1  0
 21 22  1  1
 21 23  1  0
 23 24  1  0
 11  3  1  0
 17 16  1  0
M  RAD  3   2   2  13   2  23   2
M  END
>  <docking_score>  (2) 
-4.0620000000000003

$$$$

     RDKit          3D

 24 25  0  0  0  0  0  0  0  0999 V2000
   16.3588   -4.8686   -2.0406 C   0  0  0  0  0  0  0  0  0  0  0  0
   17.7984   -4.7920   -2.4998 C   0  0  0  0  0  3  0  0  0  0  0  0
   18.0901   -3.4724   -3.1582 C   0  0  1  0  0  0  0  0  0  0  0  0
   17.9450   -2.2873   -2.2288 C   0  0  2  0  0  0  0  0  0  0  0  0
   16.8245   -1.5575   -2.6232 O   0  0  0  0  0  0  0  0  0  0  0  0
   19.1403   -1.3579   -2.3174 C   0  0  0  0  0  0  0  0  0  0  0  0
   20.2754   -1.8873   -1.7072 O   0  0  0  0  0  0  0  0  0  0  0  0
   21.0956   -2.4658   -2.5574 O   0  0  0  0  0  0  0  0  0  0  0  0
   20.5489   -3.7371   -2.8367 C   0  0  1  0  0  0  0  0  0  0  0  0
   19.9837   -4.1830   -1.6208 O   0  0  0  0  0  0  0  0  0  0  0  0
   19.4337   -3.5180   -3.8000 C   0  0  1  0  0  0  0  0  0  0  0  0
   19.4808   -4.2809   -4.9982 N   0  0  0  0  0  0  0  0  0  0  0  0
   19.5605   -3.3921   -6.1298 C   0  0  0  0  0  3  0  0  0  0  0  0
   19.1164   -4.1099   -7.3854 C   0  0  0  0  0  0  0  0  0  0  0  0
   17.6974   -4.5757   -7.1560 C   0  0  2  0  0  0  0  0  0  0  0  0
   16.8893   -4.8355   -8.2607 O   0  0  0  0  0  0  0  0  0  0  0  0
   16.6520   -3.6039   -7.6547 C   0  0  1  0  0  0  0  0  0  0  0  0
   15.5699   -3.4473   -6.8245 O   0  0  0  0  0  0  0  0  0  0  0  0
   15.7176   -2.4175   -5.9126 C   0  0  1  0  0  0  0  0  0  0  0  0
   15.8556   -1.1799   -6.5213 O   0  0  0  0  0  0  0  0  0  0  0  0
   14.5953   -2.4640   -4.9111 C   0  0  2  0  0  0  0  0  0  0  0  0
   13.7171   -3.4800   -5.2725 O   0  0  0  0  0  0  0  0  0  0  0  0
   13.7963   -1.1653   -4.9852 C   0  0  0  0  0  3  0  0  0  0  0  0
   13.9734   -0.3855   -3.8388 O   0  0  0  0  0  0  0  0  0  0  0  0
  1  2  1  0
  3  2  1  1
  3  4  1  0
  4  5  1  6
  4  6  1  0
  6  7  1  0
  7  8  1  0
  8  9  1  0
  9 10  1  1
  9 11  1  0
 11 12  1  6
 12 13  1  0
 13 14  1  0
 15 14  1  6
 15 16  1  0
 15 17  1  0
 17 18  1  1
 18 19  1  0
 19 20  1  6
 19 21  1  0
 21 22  1  6
 21 23  1  0
 23 24  1  0
 11  3  1  0
 17 16  1  0
M  RAD  3   2   2  13   2  23   2
M  END
>  <docking_score>  (3) 
-3.9100000000000001

$$$$
