
     RDKit          3D

 47 46  0  0  0  0  0  0  0  0999 V2000
   16.6731   -4.0078   -5.6003 O   0  0  0  0  0  0  0  0  0  0  0  0
   16.2621   -3.9894   -6.7845 C   0  0  0  0  0  0  0  0  0  0  0  0
   17.1596   -3.5993   -7.7925 O   0  0  0  0  0  0  0  0  0  0  0  0
   14.8554   -4.3756   -7.0820 C   0  0  0  0  0  0  0  0  0  0  0  0
   13.9403   -4.0024   -5.9786 C   0  0  0  0  0  0  0  0  0  0  0  0
   13.5510   -4.8714   -5.0792 C   0  0  0  0  0  0  0  0  0  0  0  0
   13.9801   -6.2797   -5.0802 C   0  0  0  0  0  0  0  0  0  0  0  0
   15.2425   -6.4042   -5.7907 N   0  0  0  0  0  0  0  0  0  0  0  0
   16.2746   -6.9161   -4.9275 C   0  0  0  0  0  0  0  0  0  0  0  0
   17.4643   -6.0216   -4.9936 C   0  0  0  0  0  3  0  0  0  0  0  0
   17.9202   -5.6160   -3.7031 N   0  0  0  0  0  0  0  0  0  0  0  0
   19.3856   -5.5451   -3.7192 C   0  0  0  0  0  0  0  0  0  0  0  0
   19.8318   -5.4647   -2.2592 C   0  0  0  0  0  0  0  0  0  0  0  0
   20.7012   -4.2600   -2.0972 C   0  0  0  0  0  0  0  0  0  0  0  0
   20.8855   -3.8640   -0.6951 C   0  0  0  0  0  0  0  0  0  0  0  0
   20.6043   -2.6648   -0.2512 C   0  0  0  0  0  0  0  0  0  0  0  0
   20.0767   -1.6342   -1.1609 C   0  0  0  0  0  0  0  0  0  0  0  0
   20.3665   -1.9397   -2.6149 C   0  0  0  0  0  3  0  0  0  0  0  0
   19.1220   -1.5495   -3.4209 C   0  0  0  0  0  0  0  0  0  0  0  0
   17.9316   -2.1368   -2.6438 C   0  0  0  0  0  0  0  0  0  0  0  0
   16.7511   -1.9931   -3.6206 C   0  0  0  0  0  0  0  0  0  0  0  0
   16.0553   -0.6995   -3.1703 C   0  0  0  0  0  0  0  0  0  0  0  0
   14.5570   -0.9715   -3.3557 C   0  0  0  0  0  0  0  0  0  0  0  0
   14.0367    0.0861   -4.0976 O   0  0  0  0  0  0  0  0  0  0  0  0
   13.2974   -0.3486   -5.1933 C   0  0  2  0  0  0  0  0  0  0  0  0
   13.5859    0.4777   -6.4244 C   0  0  0  0  0  0  0  0  0  0  0  0
   11.8482   -0.1131   -4.8651 C   0  0  0  0  0  0  0  0  0  0  0  0
   11.2855   -1.0227   -4.0913 C   0  0  0  0  0  0  0  0  0  0  0  0
    9.9428   -0.8990   -3.7248 N   0  0  0  0  0  0  0  0  0  0  0  0
    9.3178    0.3777   -3.4838 C   0  0  0  0  0  0  0  0  0  0  0  0
   10.1175    1.1951   -2.5377 C   0  0  0  0  0  0  0  0  0  0  0  0
    9.6015    2.3367   -2.1210 C   0  0  0  0  0  0  0  0  0  0  0  0
    8.2961    2.8109   -2.5514 C   0  0  0  0  0  0  0  0  0  0  0  0
    7.5970    3.6946   -1.8769 C   0  0  0  0  0  0  0  0  0  0  0  0
    6.7687    4.6748   -0.8884 S   0  0  0  0  0  0  0  0  0  0  0  0
    7.7568    5.7135    0.2680 C   0  0  0  0  0  3  0  0  0  0  0  0
    6.3872    6.4529    1.3416 S   0  0  1  0  0  0  0  0  0  0  0  0
    5.6465    7.4625    0.1206 C   0  0  0  0  0  3  0  0  0  0  0  0
    6.1973    8.7551    0.1992 O   0  0  0  0  0  1  0  0  0  0  0  0
    5.4477    5.2308    1.8017 C   0  0  0  0  0  0  0  0  0  0  0  0
    5.0294    5.1075    3.1211 O   0  0  0  0  0  0  0  0  0  0  0  0
    4.5118    6.2770    3.6324 C   0  0  0  0  0  3  0  0  0  0  0  0
    5.1181    7.4044    3.0852 O   0  0  0  0  0  0  0  0  0  0  0  0
    4.6499    8.5044    3.7905 C   0  0  0  0  0  0  0  0  0  0  0  0
    4.0241    8.1380    5.0854 C   0  0  0  0  0  0  0  0  0  0  0  0
    2.9164    7.3791    5.1072 C   0  0  0  0  0  0  0  0  0  0  0  0
    2.2780    7.0034    6.3941 C   0  0  0  0  0  0  0  0  0  0  0  0
  1  2  2  0
  2  3  1  0
  2  4  1  0
  4  5  1  0
  5  6  2  3
  6  7  1  0
  7  8  1  0
  8  9  1  0
  9 10  1  0
 10 11  1  0
 11 12  1  0
 12 13  1  0
 13 14  1  0
 14 15  1  0
 15 16  2  3
 16 17  1  0
 17 18  1  0
 18 19  1  0
 19 20  1  0
 20 21  1  0
 21 22  1  0
 22 23  1  0
 23 24  1  0
 24 25  1  0
 25 26  1  6
 25 27  1  0
 27 28  2  3
 28 29  1  0
 29 30  1  0
 30 31  1  0
 31 32  2  3
 32 33  1  0
 33 34  2  0
 34 35  2  0
 35 36  1  0
 37 36  1  6
 37 38  1  0
 38 39  1  0
 37 40  1  0
 40 41  1  0
 41 42  1  0
 42 43  1  0
 43 44  1  0
 44 45  1  0
 45 46  2  0
 46 47  1  0
M  CHG  1  39  -1
M  RAD  5  10   2  18   2  36   2  38   2  42   2
M  END
>  <docking_score>  (1) 
20.300000000000001

$$$$
