
     RDKit          3D

 25 25  0  0  0  0  0  0  0  0999 V2000
   11.9032   12.7869   11.8023 C   0  0  0  0  0  0  0  0  0  0  0  0
   12.6629   12.7112   12.9654 O   0  0  0  0  0  0  0  0  0  0  0  0
   11.8283   13.0474   14.0340 C   0  0  0  0  0  3  0  0  0  0  0  0
   12.4802   13.9711   14.8535 O   0  0  0  0  0  0  0  0  0  0  0  0
   11.7712   15.1753   14.7294 C   0  0  2  0  0  0  0  0  0  0  0  0
   11.8657   15.9150   16.0358 C   0  0  0  0  0  0  0  0  0  0  0  0
   10.3538   14.9382   14.3301 C   0  0  0  0  0  0  0  0  0  0  0  0
    9.3541   15.3875   15.0924 C   0  0  0  0  0  0  0  0  0  0  0  0
    7.9658   15.1073   14.6199 C   0  0  0  0  0  3  0  0  0  0  0  0
    7.9473   13.7967   13.8962 C   0  0  0  0  0  3  0  0  0  0  0  0
    6.6279   13.4903   13.2790 C   0  0  0  0  0  0  0  0  0  0  0  0
    6.5890   12.4245   12.2407 C   0  0  0  0  0  0  0  0  0  0  0  0
    5.5209   14.0987   13.5963 C   0  0  0  0  0  0  0  0  0  0  0  0
    3.9520   13.8284   12.9531 S   0  0  0  0  0  3  0  0  0  0  0  0
    2.7402   13.4227   14.1746 C   0  0  0  0  0  2  0  0  0  0  0  0
    3.4324   15.0384   11.9229 O   0  0  0  0  0  0  0  0  0  0  0  0
    3.8777   14.8549   10.6178 C   0  0  0  0  0  3  0  0  0  0  0  0
    5.2018   14.4286   10.6852 O   0  0  0  0  0  0  0  0  0  0  0  0
    5.3620   13.3934    9.7794 C   0  0  0  0  0  3  0  0  0  0  0  0
    5.0059   12.0639   10.3628 C   0  0  2  0  0  0  0  0  0  0  0  0
    3.7237   11.7153   10.0214 O   0  0  0  0  0  0  0  0  0  0  0  0
    5.2006   12.0233   11.8622 C   0  0  1  0  0  0  0  0  0  0  0  0
    4.9299   10.5914   12.3213 C   0  0  2  0  0  0  0  0  0  0  0  0
    4.9109   10.6156   13.8354 C   0  0  0  0  0  0  0  0  0  0  0  0
    6.1136    9.7625   11.8778 C   0  0  0  0  0  2  0  0  0  0  0  0
  1  2  1  0
  2  3  1  0
  3  4  1  0
  4  5  1  0
  5  6  1  1
  5  7  1  0
  7  8  2  3
  8  9  1  0
  9 10  1  0
 10 11  1  0
 11 12  1  0
 11 13  2  3
 13 14  1  0
 14 15  1  1
 14 16  1  0
 16 17  1  0
 17 18  1  0
 18 19  1  0
 19 20  1  0
 20 21  1  1
 20 22  1  0
 22 23  1  0
 23 24  1  1
 23 25  1  0
 22 12  1  6
M  CHG  1  14   1
M  RAD  7   3   2   9   2  10   2  15   3  17   2  19   2  25   3
M  END
>  <docking_score>  (1) 
-3.1389999999999998

$$$$

     RDKit          3D

 25 25  0  0  0  0  0  0  0  0999 V2000
    5.2556   11.0921   13.5648 C   0  0  0  0  0  0  0  0  0  0  0  0
    5.5100   11.0800   12.1971 O   0  0  0  0  0  0  0  0  0  0  0  0
    5.0486    9.8604   11.6957 C   0  0  0  0  0  3  0  0  0  0  0  0
    4.9638    9.9381   10.3040 O   0  0  0  0  0  0  0  0  0  0  0  0
    3.6239    9.6812    9.9772 C   0  0  2  0  0  0  0  0  0  0  0  0
    3.1240    8.5783   10.8697 C   0  0  0  0  0  0  0  0  0  0  0  0
    3.4679    9.3376    8.5342 C   0  0  0  0  0  0  0  0  0  0  0  0
    4.1690    8.3349    7.9999 C   0  0  0  0  0  0  0  0  0  0  0  0
    3.9528    8.0576    6.5488 C   0  0  0  0  0  3  0  0  0  0  0  0
    5.2326    8.2900    5.8073 C   0  0  0  0  0  3  0  0  0  0  0  0
    5.1784    9.4755    4.9088 C   0  0  0  0  0  0  0  0  0  0  0  0
    5.0384   10.8127    5.5477 C   0  0  0  0  0  0  0  0  0  0  0  0
    5.2460    9.4040    3.6102 C   0  0  0  0  0  0  0  0  0  0  0  0
    5.1938   10.6978    2.4826 S   0  0  0  0  0  3  0  0  0  0  0  0
    6.5977   10.7671    1.4105 C   0  0  0  0  0  2  0  0  0  0  0  0
    3.7509   10.7981    1.6439 O   0  0  0  0  0  0  0  0  0  0  0  0
    2.7792   11.5114    2.3384 C   0  0  0  0  0  3  0  0  0  0  0  0
    2.8580   11.1298    3.6754 O   0  0  0  0  0  0  0  0  0  0  0  0
    2.7660   12.2737    4.4504 C   0  0  0  0  0  3  0  0  0  0  0  0
    4.0930   12.9295    4.6601 C   0  0  2  0  0  0  0  0  0  0  0  0
    4.2705   13.9553    3.7665 O   0  0  0  0  0  0  0  0  0  0  0  0
    5.2384   11.9440    4.5927 C   0  0  1  0  0  0  0  0  0  0  0  0
    6.5171   12.7020    4.9453 C   0  0  2  0  0  0  0  0  0  0  0  0
    6.2032   13.5424    6.1655 C   0  0  0  0  0  0  0  0  0  0  0  0
    6.8009   13.6351    3.7905 C   0  0  0  0  0  2  0  0  0  0  0  0
  1  2  1  0
  2  3  1  0
  3  4  1  0
  4  5  1  0
  5  6  1  1
  5  7  1  0
  7  8  2  3
  8  9  1  0
  9 10  1  0
 10 11  1  0
 11 12  1  0
 11 13  2  3
 13 14  1  0
 14 15  1  6
 14 16  1  0
 16 17  1  0
 17 18  1  0
 18 19  1  0
 19 20  1  0
 20 21  1  6
 20 22  1  0
 22 23  1  0
 23 24  1  1
 23 25  1  0
 22 12  1  1
M  CHG  1  14   1
M  RAD  7   3   2   9   2  10   2  15   3  17   2  19   2  25   3
M  END
>  <docking_score>  (2) 
-2.927

$$$$

     RDKit          3D

 25 25  0  0  0  0  0  0  0  0999 V2000
   20.7817   -0.4549   -1.1417 C   0  0  0  0  0  0  0  0  0  0  0  0
   20.2098   -1.5998   -1.6873 O   0  0  0  0  0  0  0  0  0  0  0  0
   20.3041   -1.4941   -3.0771 C   0  0  0  0  0  3  0  0  0  0  0  0
   19.1748   -0.8337   -3.5655 O   0  0  0  0  0  0  0  0  0  0  0  0
   19.2435   -0.9202   -4.9640 C   0  0  2  0  0  0  0  0  0  0  0  0
   19.1565    0.4719   -5.5274 C   0  0  0  0  0  0  0  0  0  0  0  0
   18.1751   -1.8054   -5.5115 C   0  0  0  0  0  0  0  0  0  0  0  0
   17.0767   -2.0588   -4.7961 C   0  0  0  0  0  0  0  0  0  0  0  0
   16.0571   -2.9547   -5.4184 C   0  0  0  0  0  3  0  0  0  0  0  0
   15.9892   -4.2349   -4.6450 C   0  0  0  0  0  3  0  0  0  0  0  0
   16.9039   -5.2839   -5.1728 C   0  0  0  0  0  0  0  0  0  0  0  0
   18.3664   -5.0181   -5.0966 C   0  0  0  0  0  0  0  0  0  0  0  0
   16.4958   -6.4069   -5.6910 C   0  0  0  0  0  0  0  0  0  0  0  0
   17.4558   -7.6807   -6.3269 S   0  0  0  0  0  3  0  0  0  0  0  0
   17.1612   -9.2466   -5.5615 C   0  0  0  0  0  2  0  0  0  0  0  0
   17.4234   -7.7753   -7.9959 O   0  0  0  0  0  0  0  0  0  0  0  0
   18.3490   -6.9277   -8.5959 C   0  0  0  0  0  3  0  0  0  0  0  0
   18.3211   -5.7212   -7.9009 O   0  0  0  0  0  0  0  0  0  0  0  0
   19.6297   -5.3109   -7.7083 C   0  0  0  0  0  3  0  0  0  0  0  0
   20.2359   -5.8965   -6.4737 C   0  0  2  0  0  0  0  0  0  0  0  0
   20.9838   -7.0043   -6.7825 O   0  0  0  0  0  0  0  0  0  0  0  0
   19.1990   -6.2157   -5.4198 C   0  0  1  0  0  0  0  0  0  0  0  0
   19.9436   -6.6836   -4.1705 C   0  0  2  0  0  0  0  0  0  0  0  0
   19.2226   -7.9179   -3.6701 C   0  0  0  0  0  0  0  0  0  0  0  0
   19.7841   -5.5928   -3.1363 C   0  0  0  0  0  2  0  0  0  0  0  0
  1  2  1  0
  2  3  1  0
  3  4  1  0
  4  5  1  0
  5  6  1  6
  5  7  1  0
  7  8  2  3
  8  9  1  0
  9 10  1  0
 10 11  1  0
 11 12  1  0
 11 13  2  3
 13 14  1  0
 14 15  1  1
 14 16  1  0
 16 17  1  0
 17 18  1  0
 18 19  1  0
 19 20  1  0
 20 21  1  6
 20 22  1  0
 22 23  1  0
 23 24  1  1
 23 25  1  0
 22 12  1  1
M  CHG  1  14   1
M  RAD  7   3   2   9   2  10   2  15   3  17   2  19   2  25   3
M  END
>  <docking_score>  (3) 
-2.7000000000000002

$$$$
