
     RDKit          3D

 30 31  0  0  0  0  0  0  0  0999 V2000
   19.9315   -3.3752   -0.7030 C   0  0  0  0  0  0  0  0  0  0  0  0
   20.7755   -3.4705   -1.9788 C   0  0  0  0  0  0  0  0  0  0  0  0
   21.0932   -2.0599   -2.4182 C   0  0  2  0  0  0  0  0  0  0  0  0
   20.4916   -1.1124   -1.4249 C   0  0  0  0  0  0  0  0  0  0  0  0
   20.5114   -1.8266   -3.7779 C   0  0  0  0  0  0  0  0  0  0  0  0
   20.1780   -0.6946   -4.1551 O   0  0  0  0  0  0  0  0  0  0  0  0
   20.3336   -2.8904   -4.6509 O   0  0  0  0  0  0  0  0  0  0  0  0
   21.3742   -3.4252   -5.4324 C   0  0  0  0  0  3  0  0  0  0  0  0
   21.1732   -4.8922   -5.7262 C   0  0  0  0  0  0  0  0  0  0  0  0
   20.2312   -5.5574   -4.7705 C   0  0  2  0  0  0  0  0  0  0  0  0
   20.9433   -6.3373   -3.6938 C   0  0  0  0  0  0  0  0  0  0  0  0
   19.2576   -6.4637   -5.4798 C   0  0  0  0  0  0  0  0  0  0  0  0
   19.7623   -7.6106   -5.9423 C   0  0  0  0  0  0  0  0  0  0  0  0
   18.9893   -8.6505   -6.6696 C   0  0  0  0  0  0  0  0  0  0  0  0
   17.7332   -8.9616   -6.3927 C   0  0  0  0  0  0  0  0  0  0  0  0
   16.8843   -8.3742   -5.3609 C   0  0  2  0  0  0  0  0  0  0  0  0
   15.5317   -9.0620   -5.2941 C   0  0  0  0  0  0  0  0  0  0  0  0
   16.7997   -6.9344   -5.2191 C   0  0  2  0  0  0  0  0  0  0  0  0
   15.4739   -6.4124   -5.6695 C   0  0  0  0  0  0  0  0  0  0  0  0
   15.4776   -5.8193   -7.0422 C   0  0  0  0  0  0  0  0  0  0  0  0
   14.2293   -4.9724   -7.1946 C   0  0  0  0  0  0  0  0  0  0  0  0
   13.7794   -4.5399   -5.8361 C   0  0  2  0  0  0  0  0  0  0  0  0
   12.3286   -4.8055   -5.5724 C   0  0  0  0  0  0  0  0  0  0  0  0
   14.0771   -3.2071   -5.5792 O   0  0  0  0  0  0  0  0  0  0  0  0
   15.4693   -3.0476   -5.5565 C   0  0  0  0  0  0  0  0  0  0  0  0
   16.0282   -3.2865   -4.1571 C   0  0  0  0  0  0  0  0  0  0  0  0
   17.4312   -3.8584   -4.2610 C   0  0  0  0  0  0  0  0  0  0  0  0
   17.5977   -4.6314   -5.5246 C   0  0  0  0  0  0  0  0  0  0  0  0
   17.4834   -3.9796   -6.5699 O   0  0  0  0  0  0  0  0  0  0  0  0
   17.8750   -6.0480   -5.6160 C   0  0  1  0  0  0  0  0  0  0  0  0
  1  2  1  0
  2  3  1  0
  3  4  1  1
  3  5  1  0
  5  6  2  0
  5  7  1  0
  7  8  1  0
  8  9  1  0
  9 10  1  0
 10 11  1  1
 10 12  1  0
 12 13  2  0
 13 14  1  0
 14 15  2  0
 15 16  1  0
 16 17  1  6
 16 18  1  0
 18 19  1  6
 19 20  1  0
 20 21  1  0
 21 22  1  0
 22 23  1  6
 22 24  1  0
 24 25  1  0
 25 26  1  0
 26 27  1  0
 27 28  1  0
 28 29  2  0
 18 30  1  0
 30 12  1  1
 30 28  1  0
M  RAD  1   8   2
M  END
>  <docking_score>  (1) 
-3.5800000000000001

$$$$

     RDKit          3D

 30 31  0  0  0  0  0  0  0  0999 V2000
   21.3479   -8.3437   -3.8883 C   0  0  0  0  0  0  0  0  0  0  0  0
   20.5007   -8.5558   -5.1478 C   0  0  0  0  0  0  0  0  0  0  0  0
   19.3163   -7.6212   -5.0598 C   0  0  2  0  0  0  0  0  0  0  0  0
   18.8481   -7.5901   -3.6364 C   0  0  0  0  0  0  0  0  0  0  0  0
   18.2267   -8.1241   -5.9550 C   0  0  0  0  0  0  0  0  0  0  0  0
   18.4671   -8.5482   -7.0939 O   0  0  0  0  0  0  0  0  0  0  0  0
   16.9100   -8.1234   -5.5170 O   0  0  0  0  0  0  0  0  0  0  0  0
   15.9524   -7.1944   -5.9634 C   0  0  0  0  0  3  0  0  0  0  0  0
   16.4297   -5.7690   -5.8244 C   0  0  0  0  0  0  0  0  0  0  0  0
   15.5587   -4.7866   -6.5450 C   0  0  2  0  0  0  0  0  0  0  0  0
   16.0099   -4.5328   -7.9616 C   0  0  0  0  0  0  0  0  0  0  0  0
   15.4648   -3.4736   -5.8102 C   0  0  0  0  0  0  0  0  0  0  0  0
   14.2304   -2.9987   -5.6242 C   0  0  0  0  0  0  0  0  0  0  0  0
   13.9017   -1.7276   -4.9283 C   0  0  0  0  0  0  0  0  0  0  0  0
   14.5638   -1.2720   -3.8770 C   0  0  0  0  0  0  0  0  0  0  0  0
   15.7033   -1.8960   -3.2119 C   0  0  2  0  0  0  0  0  0  0  0  0
   16.1294   -1.1115   -1.9831 C   0  0  0  0  0  0  0  0  0  0  0  0
   16.8221   -2.3880   -3.9908 C   0  0  2  0  0  0  0  0  0  0  0  0
   18.0356   -1.5340   -3.8141 C   0  0  0  0  0  0  0  0  0  0  0  0
   18.2760   -0.5647   -4.9271 C   0  0  0  0  0  0  0  0  0  0  0  0
   19.7128   -0.0888   -4.8373 C   0  0  0  0  0  0  0  0  0  0  0  0
   20.5147   -1.1295   -4.1240 C   0  0  2  0  0  0  0  0  0  0  0  0
   21.3395   -0.5836   -2.9986 C   0  0  0  0  0  0  0  0  0  0  0  0
   21.3130   -1.8680   -4.9891 O   0  0  0  0  0  0  0  0  0  0  0  0
   20.4898   -2.5938   -5.8607 C   0  0  0  0  0  0  0  0  0  0  0  0
   20.1288   -3.9543   -5.2723 C   0  0  0  0  0  0  0  0  0  0  0  0
   18.7517   -4.3696   -5.7596 C   0  0  0  0  0  0  0  0  0  0  0  0
   17.9079   -3.1753   -6.0487 C   0  0  0  0  0  0  0  0  0  0  0  0
   18.3152   -2.4391   -6.9558 O   0  0  0  0  0  0  0  0  0  0  0  0
   16.6825   -2.8235   -5.3657 C   0  0  1  0  0  0  0  0  0  0  0  0
  1  2  1  0
  2  3  1  0
  3  4  1  1
  3  5  1  0
  5  6  2  0
  5  7  1  0
  7  8  1  0
  8  9  1  0
  9 10  1  0
 10 11  1  6
 10 12  1  0
 12 13  2  0
 13 14  1  0
 14 15  2  0
 15 16  1  0
 16 17  1  1
 16 18  1  0
 18 19  1  6
 19 20  1  0
 20 21  1  0
 21 22  1  0
 22 23  1  1
 22 24  1  0
 24 25  1  0
 25 26  1  0
 26 27  1  0
 27 28  1  0
 28 29  2  0
 18 30  1  0
 30 12  1  1
 30 28  1  0
M  RAD  1   8   2
M  END
>  <docking_score>  (2) 
-2.4950000000000001

$$$$

     RDKit          3D

 30 31  0  0  0  0  0  0  0  0999 V2000
    4.1363   13.9525   13.0932 C   0  0  0  0  0  0  0  0  0  0  0  0
    3.5329   12.6029   12.6888 C   0  0  0  0  0  0  0  0  0  0  0  0
    3.6374   12.4922   11.1853 C   0  0  2  0  0  0  0  0  0  0  0  0
    2.7432   11.3774   10.7338 C   0  0  0  0  0  0  0  0  0  0  0  0
    5.0582   12.2030   10.8121 C   0  0  0  0  0  0  0  0  0  0  0  0
    5.6829   11.2608   11.3188 O   0  0  0  0  0  0  0  0  0  0  0  0
    5.7083   12.9976    9.8786 O   0  0  0  0  0  0  0  0  0  0  0  0
    5.0269   13.8035    8.9481 C   0  0  0  0  0  3  0  0  0  0  0  0
    5.0898   13.2401    7.5490 C   0  0  0  0  0  0  0  0  0  0  0  0
    3.9372   13.6671    6.6932 C   0  0  2  0  0  0  0  0  0  0  0  0
    2.5990   13.3713    7.3230 C   0  0  0  0  0  0  0  0  0  0  0  0
    3.9914   13.0402    5.3233 C   0  0  0  0  0  0  0  0  0  0  0  0
    4.0292   13.8922    4.2954 C   0  0  0  0  0  0  0  0  0  0  0  0
    4.0857   13.4990    2.8636 C   0  0  0  0  0  0  0  0  0  0  0  0
    4.7580   12.4515    2.4143 C   0  0  0  0  0  0  0  0  0  0  0  0
    5.5492   11.5072    3.1972 C   0  0  2  0  0  0  0  0  0  0  0  0
    6.2450   10.4915    2.3077 C   0  0  0  0  0  0  0  0  0  0  0  0
    5.0029   10.9262    4.4073 C   0  0  2  0  0  0  0  0  0  0  0  0
    4.6773    9.4790    4.2265 C   0  0  0  0  0  0  0  0  0  0  0  0
    3.2291    9.1976    3.9823 C   0  0  0  0  0  0  0  0  0  0  0  0
    2.9837    7.7240    4.2411 C   0  0  0  0  0  0  0  0  0  0  0  0
    4.0339    7.2249    5.1808 C   0  0  2  0  0  0  0  0  0  0  0  0
    4.7183    5.9789    4.7078 C   0  0  0  0  0  0  0  0  0  0  0  0
    3.5483    7.0451    6.4703 O   0  0  0  0  0  0  0  0  0  0  0  0
    3.1710    8.2897    6.9926 C   0  0  0  0  0  0  0  0  0  0  0  0
    4.3434    8.9725    7.6903 C   0  0  0  0  0  0  0  0  0  0  0  0
    4.2047   10.4792    7.5604 C   0  0  0  0  0  0  0  0  0  0  0  0
    3.4626   10.8393    6.3188 C   0  0  0  0  0  0  0  0  0  0  0  0
    2.2914   10.4448    6.2618 O   0  0  0  0  0  0  0  0  0  0  0  0
    3.9962   11.5947    5.2068 C   0  0  1  0  0  0  0  0  0  0  0  0
  1  2  1  0
  2  3  1  0
  3  4  1  1
  3  5  1  0
  5  6  2  0
  5  7  1  0
  7  8  1  0
  8  9  1  0
  9 10  1  0
 10 11  1  1
 10 12  1  0
 12 13  2  0
 13 14  1  0
 14 15  2  0
 15 16  1  0
 16 17  1  6
 16 18  1  0
 18 19  1  6
 19 20  1  0
 20 21  1  0
 21 22  1  0
 22 23  1  6
 22 24  1  0
 24 25  1  0
 25 26  1  0
 26 27  1  0
 27 28  1  0
 28 29  2  0
 18 30  1  0
 30 12  1  1
 30 28  1  0
M  RAD  1   8   2
M  END
>  <docking_score>  (3) 
-2.1709999999999998

$$$$
