
     RDKit          3D

  9  8  0  0  0  0  0  0  0  0999 V2000
    6.7667    2.5275   -4.6608 C   0  0  0  0  0  0  0  0  0  0  0  0
    6.4099    1.6880   -5.8306 C   0  0  0  0  0  0  0  0  0  0  0  0
    5.4085    1.9866   -6.5069 O   0  0  0  0  0  0  0  0  0  0  0  0
    7.2347    0.5913   -6.1089 O   0  0  0  0  0  0  0  0  0  0  0  0
    6.7806   -0.6801   -5.7896 C   0  0  0  0  0  0  0  0  0  0  0  0
    5.9721   -1.4914   -6.6617 C   0  0  0  0  0  0  0  0  0  0  0  0
    5.4040   -2.7872   -6.2159 C   0  0  0  0  0  0  0  0  0  0  0  0
    5.7156   -1.1278   -7.8441 O   0  0  0  0  0  0  0  0  0  0  0  0
    7.0928   -1.1569   -4.6688 O   0  0  0  0  0  0  0  0  0  0  0  0
  1  2  1  0
  2  3  2  0
  2  4  1  0
  4  5  1  0
  5  6  1  0
  6  7  1  0
  6  8  2  0
  5  9  2  0
M  END
>  <docking_score>  (1) 
-4.0339999999999998

$$$$

     RDKit          3D

  9  8  0  0  0  0  0  0  0  0999 V2000
   18.1598    6.9897   -2.8924 C   0  0  0  0  0  0  0  0  0  0  0  0
   19.5975    7.2948   -3.0938 C   0  0  0  0  0  0  0  0  0  0  0  0
   20.1151    7.0665   -4.2026 O   0  0  0  0  0  0  0  0  0  0  0  0
   20.2984    7.8305   -2.0065 O   0  0  0  0  0  0  0  0  0  0  0  0
   19.8991    9.0578   -1.4975 C   0  0  0  0  0  0  0  0  0  0  0  0
   19.9230    9.3983   -0.0990 C   0  0  0  0  0  0  0  0  0  0  0  0
   18.7557   10.0216    0.5713 C   0  0  0  0  0  0  0  0  0  0  0  0
   20.9439    9.1778    0.6118 O   0  0  0  0  0  0  0  0  0  0  0  0
   19.4898    9.9298   -2.3057 O   0  0  0  0  0  0  0  0  0  0  0  0
  1  2  1  0
  2  3  2  0
  2  4  1  0
  4  5  1  0
  5  6  1  0
  6  7  1  0
  6  8  2  0
  5  9  2  0
M  END
>  <docking_score>  (2) 
-3.3740000000000001

$$$$

     RDKit          3D

  9  8  0  0  0  0  0  0  0  0999 V2000
   16.6469   -3.8173   -1.8463 C   0  0  0  0  0  0  0  0  0  0  0  0
   16.6839   -2.7928   -2.9186 C   0  0  0  0  0  0  0  0  0  0  0  0
   17.6153   -1.9672   -2.9349 O   0  0  0  0  0  0  0  0  0  0  0  0
   15.6516   -2.8160   -3.8643 O   0  0  0  0  0  0  0  0  0  0  0  0
   15.0138   -1.6255   -4.1816 C   0  0  0  0  0  0  0  0  0  0  0  0
   14.8098   -1.1522   -5.5257 C   0  0  0  0  0  0  0  0  0  0  0  0
   15.4966   -1.7748   -6.6838 C   0  0  0  0  0  0  0  0  0  0  0  0
   14.0348   -0.1847   -5.7693 O   0  0  0  0  0  0  0  0  0  0  0  0
   14.5858   -0.9126   -3.2383 O   0  0  0  0  0  0  0  0  0  0  0  0
  1  2  1  0
  2  3  2  0
  2  4  1  0
  4  5  1  0
  5  6  1  0
  6  7  1  0
  6  8  2  0
  5  9  2  0
M  END
>  <docking_score>  (3) 
-3.0369999999999999

$$$$
