
     RDKit          3D

  8  9  0  0  0  0  0  0  0  0999 V2000
   19.6202    8.6300   -1.5623 C   0  0  0  0  0  0  0  0  0  0  0  0
   21.0119    9.2056   -1.7326 O   0  0  0  0  0  0  0  0  0  0  0  0
   20.8819    9.3564   -0.3643 C   0  0  0  0  0  0  0  0  0  0  0  0
   20.9490    9.4376    0.9154 C   0  0  0  0  0  0  0  0  0  0  0  0
   19.6776    9.8734    1.5043 C   0  0  0  0  0  0  0  0  0  0  0  0
   18.8210   10.0678    0.4884 C   0  0  0  0  0  0  0  0  0  0  0  0
   19.4581    9.8070   -0.7295 C   0  0  2  0  0  0  0  0  0  0  0  0
   19.5488   11.0278   -1.5847 N   0  0  0  0  0  0  0  0  0  0  0  0
  1  2  1  0
  2  3  1  0
  3  4  2  0
  4  5  1  0
  5  6  2  0
  6  7  1  0
  7  8  1  6
  7  1  1  0
  7  3  1  0
M  END
>  <docking_score>  (1) 
-4.1150000000000002

$$$$

     RDKit          3D

  8  9  0  0  0  0  0  0  0  0999 V2000
    6.7954   -0.0775   -8.0181 C   0  0  0  0  0  0  0  0  0  0  0  0
    5.3136    0.2342   -8.0822 O   0  0  0  0  0  0  0  0  0  0  0  0
    5.6734    1.1039   -7.0693 C   0  0  0  0  0  0  0  0  0  0  0  0
    5.8859    2.0396   -6.2160 C   0  0  0  0  0  0  0  0  0  0  0  0
    6.8484    1.6333   -5.1855 C   0  0  0  0  0  0  0  0  0  0  0  0
    7.2064    0.3684   -5.4601 C   0  0  0  0  0  0  0  0  0  0  0  0
    6.5229   -0.0857   -6.5931 C   0  0  2  0  0  0  0  0  0  0  0  0
    5.6118   -1.2256   -6.2758 N   0  0  0  0  0  0  0  0  0  0  0  0
  1  2  1  0
  2  3  1  0
  3  4  2  0
  4  5  1  0
  5  6  2  0
  6  7  1  0
  7  8  1  1
  7  1  1  0
  7  3  1  0
M  END
>  <docking_score>  (2) 
-3.956

$$$$

     RDKit          3D

  8  9  0  0  0  0  0  0  0  0999 V2000
    5.5144    1.2840   -6.4265 C   0  0  0  0  0  0  0  0  0  0  0  0
    6.7435    1.5615   -7.2687 O   0  0  0  0  0  0  0  0  0  0  0  0
    6.3747    0.3475   -7.8184 C   0  0  0  0  0  0  0  0  0  0  0  0
    6.0789   -0.6983   -8.5021 C   0  0  0  0  0  0  0  0  0  0  0  0
    5.5914   -1.7897   -7.6510 C   0  0  0  0  0  0  0  0  0  0  0  0
    5.6198   -1.3424   -6.3850 C   0  0  0  0  0  0  0  0  0  0  0  0
    6.1152   -0.0345   -6.3521 C   0  0  2  0  0  0  0  0  0  0  0  0
    7.4025    0.0561   -5.6006 N   0  0  0  0  0  0  0  0  0  0  0  0
  1  2  1  0
  2  3  1  0
  3  4  2  0
  4  5  1  0
  5  6  2  0
  6  7  1  0
  7  8  1  1
  7  1  1  0
  7  3  1  0
M  END
>  <docking_score>  (3) 
-3.6400000000000001

$$$$
