
     RDKit          3D

 75 76  0  0  0  0  0  0  0  0999 V2000
   20.0628   -7.4306   -4.6513 C   0  0  0  0  0  0  0  0  0  0  0  0
   19.3932   -8.2298   -3.5541 C   0  0  0  0  0  0  0  0  0  0  0  0
   20.2164   -9.4943   -3.3620 C   0  0  0  0  0  0  0  0  0  0  0  0
   18.0477   -8.6814   -4.1045 C   0  0  0  0  0  0  0  0  0  0  0  0
   17.4959   -7.7083   -5.1196 C   0  0  0  0  0  0  0  0  0  0  0  0
   16.2394   -7.0925   -4.5801 C   0  0  0  0  0  0  0  0  0  0  0  0
   16.1988   -5.6027   -4.7328 C   0  0  1  0  0  0  0  0  0  0  0  0
   15.8145   -4.8462   -3.5182 C   0  0  2  0  0  0  0  0  0  0  0  0
   14.6346   -3.9283   -3.7549 C   0  0  0  0  0  0  0  0  0  0  0  0
   17.2872   -5.0249   -5.5639 C   0  0  0  0  0  3  0  0  0  0  0  0
   17.0736   -5.3907   -7.0255 C   0  0  0  0  0  3  0  0  0  0  0  0
   16.2092   -4.0885   -7.9201 S   0  0  0  0  0  0  0  0  0  0  0  0
   18.4102   -5.6629   -7.6669 C   0  0  0  0  0  0  0  0  0  0  0  0
   18.9905   -4.3967   -8.2803 C   0  0  0  0  0  0  0  0  0  0  0  0
   20.4332   -4.5912   -8.6606 C   0  0  0  0  0  3  0  0  0  0  0  0
   21.3810   -4.3051   -7.5158 C   0  0  0  0  0  0  0  0  0  0  0  0
   21.1486   -2.8928   -6.9986 C   0  0  0  0  0  0  0  0  0  0  0  0
   19.8394   -2.8769   -6.2200 C   0  0  0  0  0  0  0  0  0  0  0  0
   20.0713   -3.2461   -4.7785 C   0  0  2  0  0  0  0  0  0  0  0  0
   20.5744   -4.6610   -4.7061 C   0  0  0  0  0  2  0  0  0  0  0  0
   18.7902   -3.0886   -4.0378 C   0  0  0  0  0  0  0  0  0  0  0  0
   18.1847   -4.1651   -3.5472 C   0  0  0  0  0  0  0  0  0  0  0  0
   16.9238   -4.1448   -2.8014 C   0  0  1  0  0  0  0  0  0  0  0  0
   16.4974   -2.7962   -2.3144 C   0  0  0  0  0  3  0  0  0  0  0  0
   15.0230   -2.5794   -2.4021 C   0  0  2  0  0  0  0  0  0  0  0  0
   14.6557   -2.3280   -3.8456 C   0  0  0  0  0  3  0  0  0  0  0  0
   13.6633   -3.7392   -4.4091 S   0  0  0  0  0  0  0  0  0  0  0  0
   13.7275   -3.9506   -6.1890 C   0  0  2  0  0  0  0  0  0  0  0  0
   14.9355   -4.7208   -6.6545 C   0  0  0  0  0  2  0  0  0  0  0  0
   13.6806   -2.3786   -7.0861 S   0  0  0  0  0  0  0  0  0  0  0  0
   14.2543   -1.0743   -5.9838 C   0  0  0  0  0  3  0  0  0  0  0  0
   15.7437   -0.8323   -6.1074 C   0  0  0  0  0  3  0  0  0  0  0  0
   16.1165    0.4792   -5.4448 C   0  0  0  0  0  3  0  0  0  0  0  0
   14.6100    1.3349   -4.8447 S   0  0  0  0  0  0  0  0  0  0  0  0
   15.0887    2.1988   -2.9600 S   0  0  0  0  0  0  0  0  0  0  0  0
   15.1282    0.8793   -1.7150 C   0  0  2  0  0  0  0  0  0  0  0  0
   16.5925    0.4493   -1.5765 C   0  0  0  0  0  3  0  0  0  0  0  0
   17.4286    0.4773   -3.1703 S   0  0  0  0  0  0  0  0  0  0  0  0
   14.2738   -0.2482   -2.2094 C   0  0  0  0  0  3  0  0  0  0  0  0
   14.5157   -1.5343   -1.4529 C   0  0  1  0  0  0  0  0  0  0  0  0
   13.1398   -2.0184   -0.9705 C   0  0  0  0  0  3  0  0  0  0  0  0
   13.1952   -2.5122    0.4321 C   0  0  0  0  0  3  0  0  0  0  0  0
   14.8043   -2.2894    1.1732 S   0  0  0  0  0  0  0  0  0  0  0  0
   16.1497   -2.5529    0.0295 C   0  0  0  0  0  3  0  0  0  0  0  0
   17.7292   -2.9260    0.8177 S   0  0  0  0  0  0  0  0  0  0  0  0
   17.7545   -2.0275    2.4125 C   0  0  0  0  0  3  0  0  0  0  0  0
   17.7508   -3.0384    3.5198 C   0  0  0  0  0  3  0  0  0  0  0  0
   18.9694   -4.3222    3.2103 S   0  0  0  0  0  0  0  0  0  0  0  0
   19.8372   -4.8278    4.6917 C   0  0  0  0  0  3  0  0  0  0  0  0
   20.0064   -6.6084    4.8581 S   0  0  0  0  0  0  0  0  0  0  0  0
   21.3716   -7.0860    5.9275 C   0  0  0  0  0  3  0  0  0  0  0  0
   21.0603   -8.7004    6.6869 S   0  0  0  0  0  0  0  0  0  0  0  0
   19.6936   -8.5709    7.8720 C   0  0  0  0  0  0  0  0  0  0  0  0
   18.3802   -8.9070    7.1682 C   0  0  0  0  0  3  0  0  0  0  0  0
   17.4428   -7.3880    6.8243 S   0  0  0  0  0  0  0  0  0  0  0  0
   15.7362   -7.6872    7.3722 C   0  0  0  0  0  3  0  0  0  0  0  0
   15.0626   -6.2168    8.1662 S   0  0  0  0  0  0  0  0  0  0  0  0
   15.7778   -5.9602    9.7915 C   0  0  0  0  0  3  0  0  0  0  0  0
   16.2750   -7.4606   10.6187 S   0  0  0  0  0  0  0  0  0  0  0  0
   15.3384   -8.9089   10.1991 C   0  0  0  0  0  3  0  0  0  0  0  0
   16.3280  -10.4043   10.3165 S   0  0  0  0  0  0  0  0  0  0  0  0
   15.3280  -11.7333   11.0292 C   0  0  0  0  0  3  0  0  0  0  0  0
   13.8942  -11.6125   10.6080 C   0  0  0  0  0  3  0  0  0  0  0  0
   13.0563  -10.2682   11.4473 S   0  0  0  0  0  0  0  0  0  0  0  0
   11.4581   -9.8294   10.8556 C   0  0  0  0  0  3  0  0  0  0  0  0
   10.1594  -10.9762   11.0541 S   0  0  0  0  0  0  0  0  0  0  0  0
    8.7899  -10.9536    9.9275 C   0  0  0  0  0  3  0  0  0  0  0  0
    9.1254  -11.2409    8.5051 C   0  0  0  0  0  0  0  0  0  0  0  0
    8.2173  -12.3543    8.0015 C   0  0  0  0  0  3  0  0  0  0  0  0
    7.3604  -11.8893    6.8538 C   0  0  0  0  0  3  0  0  0  0  0  0
    7.5059  -10.1028    6.6389 S   0  0  0  0  0  0  0  0  0  0  0  0
    8.2778   -9.6258    5.0990 C   0  0  0  0  0  3  0  0  0  0  0  0
    8.0809   -7.8838    4.6804 S   0  0  0  0  0  0  0  0  0  0  0  0
    6.0951   -7.2568    5.0409 S   0  0  0  0  0  0  0  0  0  0  0  0
    4.8987   -8.3765    4.2999 C   0  0  0  0  0  2  0  0  0  0  0  0
  1  2  1  0
  2  3  1  0
  2  4  1  0
  4  5  1  0
  5  6  1  0
  7  6  1  1
  7  8  1  0
  8  9  1  6
  7 10  1  0
 10 11  1  0
 11 12  1  0
 11 13  1  0
 13 14  1  0
 14 15  1  0
 15 16  1  0
 16 17  1  0
 17 18  1  0
 18 19  1  0
 19 20  1  6
 19 21  1  0
 21 22  2  3
 22 23  1  0
 23 24  1  6
 25 24  1  6
 25 26  1  0
 26 27  1  0
 27 28  1  0
 28 29  1  1
 28 30  1  0
 30 31  1  0
 31 32  1  0
 32 33  1  0
 33 34  1  0
 34 35  1  0
 35 36  1  0
 36 37  1  6
 37 38  1  0
 36 39  1  0
 39 40  1  0
 40 41  1  6
 41 42  1  0
 42 43  1  0
 43 44  1  0
 44 45  1  0
 45 46  1  0
 46 47  1  0
 47 48  1  0
 48 49  1  0
 49 50  1  0
 50 51  1  0
 51 52  1  0
 52 53  1  0
 53 54  1  0
 54 55  1  0
 55 56  1  0
 56 57  1  0
 57 58  1  0
 58 59  1  0
 59 60  1  0
 60 61  1  0
 61 62  1  0
 62 63  1  0
 63 64  1  0
 64 65  1  0
 65 66  1  0
 66 67  1  0
 67 68  1  0
 68 69  1  0
 69 70  1  0
 70 71  1  0
 71 72  1  0
 72 73  1  0
 73 74  1  0
 74 75  1  0
 23  8  1  0
 40 25  1  0
M  RAD  8  10   2  11   2  15   2  20   3  24   2  26   2  29   3  31   2
M  RAD  8  32   2  33   2  37   2  39   2  41   2  42   2  44   2  46   2
M  RAD  8  47   2  49   2  51   2  54   2  56   2  58   2  60   2  62   2
M  RAD  7  63   2  65   2  67   2  69   2  70   2  72   2  75   3
M  END
>  <docking_score>  (1) 
97.182000000000002

$$$$
