
     RDKit          3D

 23 25  0  0  0  0  0  0  0  0999 V2000
   13.9108    0.1566   -4.9512 C   0  0  0  0  0  0  0  0  0  0  0  0
   15.1076   -0.3918   -5.7014 C   0  0  0  0  0  3  0  0  0  0  0  0
   14.7565   -1.7911   -6.1195 C   0  0  1  0  0  0  0  0  0  0  0  0
   15.7056   -2.3149   -7.2003 C   0  0  2  0  0  0  0  0  0  0  0  0
   15.1012   -2.3382   -8.4426 O   0  0  0  0  0  0  0  0  0  0  0  0
   16.0213   -3.7010   -6.6860 C   0  0  2  0  0  0  0  0  0  0  0  0
   17.1026   -4.3144   -7.1927 O   0  0  0  0  0  0  0  0  0  0  0  0
   14.7535   -4.4426   -6.5426 C   0  0  1  0  0  0  0  0  0  0  0  0
   14.8617   -5.8123   -6.5052 O   0  0  0  0  0  0  0  0  0  0  0  0
   14.0831   -3.9151   -5.4369 O   0  0  0  0  0  0  0  0  0  0  0  0
   14.6669   -2.7463   -4.9450 C   0  0  1  0  0  0  0  0  0  0  0  0
   15.9981   -3.0154   -4.4270 C   0  0  1  0  0  0  0  0  0  0  0  0
   16.9521   -1.8612   -4.3087 C   0  0  0  0  0  0  0  0  0  0  0  0
   18.2555   -2.5095   -4.5668 N   0  0  0  0  0  0  0  0  0  0  0  0
   19.2633   -1.6458   -4.2275 O   0  0  0  0  0  0  0  0  0  0  0  0
   18.3700   -2.9923   -5.8328 N   0  0  0  0  0  0  0  0  0  0  0  0
   18.0087   -4.3230   -6.0899 C   0  0  1  0  0  0  0  0  0  0  0  0
   17.4000   -5.1157   -5.0199 C   0  0  1  0  0  0  0  0  0  0  0  0
   17.7191   -6.4644   -5.1279 O   0  0  0  0  0  0  0  0  0  0  0  0
   17.5105   -4.6266   -3.6297 C   0  0  2  0  0  0  0  0  0  0  0  0
   17.5896   -5.7049   -2.7399 O   0  0  0  0  0  0  0  0  0  0  0  0
   16.1758   -3.9265   -3.2839 C   0  0  1  0  0  0  0  0  0  0  0  0
   16.4806   -3.1665   -2.1309 O   0  0  0  0  0  0  0  0  0  0  0  0
  1  2  1  0
  3  2  1  1
  3  4  1  0
  4  5  1  6
  4  6  1  0
  6  7  1  6
  6  8  1  0
  8  9  1  1
  8 10  1  0
 11 10  1  6
 11 12  1  0
 12 13  1  1
 13 14  1  0
 14 15  1  0
 14 16  1  0
 17 16  1  1
 17 18  1  0
 18 19  1  1
 18 20  1  0
 20 21  1  1
 20 22  1  0
 22 23  1  1
 11  3  1  0
 17  7  1  0
 22 12  1  0
M  RAD  1   2   2
M  END
>  <docking_score>  (1) 
-6.149

$$$$

     RDKit          3D

 23 25  0  0  0  0  0  0  0  0999 V2000
   13.8268   -0.6796   -5.1561 C   0  0  0  0  0  0  0  0  0  0  0  0
   14.4771   -2.0179   -4.8698 C   0  0  0  0  0  3  0  0  0  0  0  0
   15.8197   -1.7293   -4.2615 C   0  0  1  0  0  0  0  0  0  0  0  0
   15.9127   -2.2440   -2.8229 C   0  0  2  0  0  0  0  0  0  0  0  0
   15.8449   -1.2124   -1.9062 O   0  0  0  0  0  0  0  0  0  0  0  0
   17.2629   -2.9243   -2.8271 C   0  0  2  0  0  0  0  0  0  0  0  0
   17.5164   -3.7959   -1.8380 O   0  0  0  0  0  0  0  0  0  0  0  0
   18.2826   -1.9291   -3.2111 C   0  0  1  0  0  0  0  0  0  0  0  0
   19.5769   -2.2322   -2.8614 O   0  0  0  0  0  0  0  0  0  0  0  0
   18.1282   -1.6772   -4.5760 O   0  0  0  0  0  0  0  0  0  0  0  0
   16.9676   -2.2385   -5.1117 C   0  0  1  0  0  0  0  0  0  0  0  0
   17.0215   -3.6896   -5.0474 C   0  0  1  0  0  0  0  0  0  0  0  0
   15.7242   -4.4441   -5.1131 C   0  0  0  0  0  0  0  0  0  0  0  0
   16.0066   -5.6196   -4.2623 N   0  0  0  0  0  0  0  0  0  0  0  0
   15.0157   -6.5496   -4.4353 O   0  0  0  0  0  0  0  0  0  0  0  0
   16.2136   -5.2968   -2.9577 N   0  0  0  0  0  0  0  0  0  0  0  0
   17.5221   -5.0522   -2.5156 C   0  0  1  0  0  0  0  0  0  0  0  0
   18.6115   -5.0256   -3.4933 C   0  0  1  0  0  0  0  0  0  0  0  0
   19.8121   -5.4609   -2.9441 O   0  0  0  0  0  0  0  0  0  0  0  0
   18.3708   -5.6008   -4.8332 C   0  0  2  0  0  0  0  0  0  0  0  0
   19.5471   -6.1696   -5.3366 O   0  0  0  0  0  0  0  0  0  0  0  0
   18.0617   -4.4238   -5.7873 C   0  0  1  0  0  0  0  0  0  0  0  0
   17.4750   -5.0457   -6.9137 O   0  0  0  0  0  0  0  0  0  0  0  0
  1  2  1  0
  3  2  1  6
  3  4  1  0
  4  5  1  1
  4  6  1  0
  6  7  1  1
  6  8  1  0
  8  9  1  6
  8 10  1  0
 11 10  1  1
 11 12  1  0
 12 13  1  6
 13 14  1  0
 14 15  1  0
 14 16  1  0
 17 16  1  6
 17 18  1  0
 18 19  1  1
 18 20  1  0
 20 21  1  6
 20 22  1  0
 22 23  1  6
 11  3  1  0
 17  7  1  0
 22 12  1  0
M  RAD  1   2   2
M  END
>  <docking_score>  (2) 
-5.8140000000000001

$$$$

     RDKit          3D

 23 25  0  0  0  0  0  0  0  0999 V2000
   18.1267   -3.6734   -1.6986 C   0  0  0  0  0  0  0  0  0  0  0  0
   17.9125   -4.1629   -3.1165 C   0  0  0  0  0  3  0  0  0  0  0  0
   17.1042   -3.1126   -3.8232 C   0  0  1  0  0  0  0  0  0  0  0  0
   17.7942   -2.6312   -5.1020 C   0  0  2  0  0  0  0  0  0  0  0  0
   18.3437   -1.3735   -4.9429 O   0  0  0  0  0  0  0  0  0  0  0  0
   16.6500   -2.6402   -6.0901 C   0  0  2  0  0  0  0  0  0  0  0  0
   16.9633   -2.6197   -7.3953 O   0  0  0  0  0  0  0  0  0  0  0  0
   15.5847   -1.7585   -5.5745 C   0  0  1  0  0  0  0  0  0  0  0  0
   14.6778   -1.3082   -6.5040 O   0  0  0  0  0  0  0  0  0  0  0  0
   14.9856   -2.4129   -4.4961 O   0  0  0  0  0  0  0  0  0  0  0  0
   15.6786   -3.5551   -4.0910 C   0  0  1  0  0  0  0  0  0  0  0  0
   15.6648   -4.5630   -5.1384 C   0  0  1  0  0  0  0  0  0  0  0  0
   16.7243   -5.6272   -5.1027 C   0  0  0  0  0  0  0  0  0  0  0  0
   16.9387   -5.8985   -6.5401 N   0  0  0  0  0  0  0  0  0  0  0  0
   17.6817   -7.0413   -6.6770 O   0  0  0  0  0  0  0  0  0  0  0  0
   17.4623   -4.8380   -7.2110 N   0  0  0  0  0  0  0  0  0  0  0  0
   16.5938   -3.9278   -7.8311 C   0  0  1  0  0  0  0  0  0  0  0  0
   15.1503   -4.0717   -7.6328 C   0  0  1  0  0  0  0  0  0  0  0  0
   14.4289   -3.6382   -8.7392 O   0  0  0  0  0  0  0  0  0  0  0  0
   14.6359   -5.3499   -7.0983 C   0  0  2  0  0  0  0  0  0  0  0  0
   13.3717   -5.6268   -7.6329 O   0  0  0  0  0  0  0  0  0  0  0  0
   14.3888   -5.1465   -5.5854 C   0  0  1  0  0  0  0  0  0  0  0  0
   14.2808   -6.4627   -5.0797 O   0  0  0  0  0  0  0  0  0  0  0  0
  1  2  1  0
  3  2  1  6
  3  4  1  0
  4  5  1  1
  4  6  1  0
  6  7  1  6
  6  8  1  0
  8  9  1  6
  8 10  1  0
 11 10  1  6
 11 12  1  0
 12 13  1  1
 13 14  1  0
 14 15  1  0
 14 16  1  0
 17 16  1  1
 17 18  1  0
 18 19  1  6
 18 20  1  0
 20 21  1  6
 20 22  1  0
 22 23  1  1
 11  3  1  0
 17  7  1  0
 22 12  1  0
M  RAD  1   2   2
M  END
>  <docking_score>  (3) 
-5.4539999999999997

$$$$
