
     RDKit          3D

 81 82  0  0  0  0  0  0  0  0999 V2000
    6.9926    4.9336    5.6747 C   0  0  0  0  0  0  0  0  0  0  0  0
    7.8720    4.8959    4.5871 O   0  0  0  0  0  0  0  0  0  0  0  0
    8.9651    4.1378    4.9499 C   0  0  0  0  0  3  0  0  0  0  0  0
    9.8873    4.8693    5.6766 O   0  0  0  0  0  0  0  0  0  0  0  0
    9.2616    5.8615    6.4008 C   0  0  1  0  0  0  0  0  0  0  0  0
    8.9174    5.2980    7.7668 C   0  0  0  0  0  0  0  0  0  0  0  0
    9.4028    3.8681    7.9058 C   0  0  0  0  0  3  0  0  0  0  0  0
   10.8315    3.7174    7.4402 C   0  0  0  0  0  3  0  0  0  0  0  0
   11.0279    2.4849    6.5986 C   0  0  0  0  0  3  0  0  0  0  0  0
   10.4279    1.2561    7.2005 C   0  0  0  0  0  0  0  0  0  0  0  0
   11.4249    0.3447    7.8498 C   0  0  1  0  0  0  0  0  0  0  0  0
   11.9936   -0.6779    6.9058 C   0  0  0  0  0  2  0  0  0  0  0  0
   12.5847    1.1288    8.4289 C   0  0  0  0  0  0  0  0  0  0  0  0
   13.8942    0.3783    8.2627 C   0  0  0  0  0  0  0  0  0  0  0  0
   10.7473   -0.3620    8.8588 O   0  0  0  0  0  0  0  0  0  0  0  0
   10.1697    0.5088    9.7799 C   0  0  0  0  0  0  0  0  0  0  0  0
    9.8162   -0.2509   10.8977 O   0  0  0  0  0  0  0  0  0  0  0  0
   10.3271    0.3167   12.0655 C   0  0  2  0  0  0  0  0  0  0  0  0
   11.1863   -0.6107   12.6610 O   0  0  0  0  0  0  0  0  0  0  0  0
    9.1745    0.5705   13.0174 C   0  0  0  0  0  3  0  0  0  0  0  0
    9.5335    1.4083   14.0535 O   0  0  0  0  0  0  0  0  0  0  0  0
    9.8025    0.6684   15.2213 C   0  0  0  0  0  3  0  0  0  0  0  0
    8.5136    0.5871   15.9898 C   0  0  0  0  0  3  0  0  0  0  0  0
    8.5727    1.2875   17.1829 O   0  0  0  0  0  0  0  0  0  0  0  0
    8.0049    0.5198   18.1890 C   0  0  0  0  0  3  0  0  0  0  0  0
    7.6834    1.3426   19.2808 O   0  0  0  0  0  0  0  0  0  0  0  0
    6.6721    2.2040   18.8770 C   0  0  0  0  0  3  0  0  0  0  0  0
    6.4475    3.1972   20.0072 C   0  0  0  0  0  0  0  0  0  0  0  0
    5.9137    4.3857   19.5299 O   0  0  0  0  0  0  0  0  0  0  0  0
    5.0098    4.9141   20.3840 N   0  0  0  0  0  0  0  0  0  0  0  0
    5.3442    6.3035   20.6309 C   0  0  0  0  0  3  0  0  0  0  0  0
    4.0902    7.1111   20.3249 C   0  0  0  0  0  3  0  0  0  0  0  0
    4.3751    7.9489   19.2420 O   0  0  0  0  0  0  0  0  0  0  0  0
    3.5268    9.0537   19.3131 C   0  0  0  0  0  3  0  0  0  0  0  0
    4.2751   10.2322   18.7372 C   0  0  0  0  0  3  0  0  0  0  0  0
    3.4386   10.8746   17.6578 C   0  0  0  0  0  3  0  0  0  0  0  0
    3.1206   12.1805   18.0628 O   0  0  0  0  0  0  0  0  0  0  0  0
    2.3954   12.8010   17.0432 C   0  0  0  0  0  3  0  0  0  0  0  0
    3.2693   13.4861   16.2084 O   0  0  0  0  0  0  0  0  0  0  0  0
    2.9622   13.1764   14.8799 C   0  0  0  0  0  3  0  0  0  0  0  0
    3.7640   14.0859   13.9878 C   0  0  0  0  0  3  0  0  0  0  0  0
    3.1202   14.3487   12.7873 O   0  0  0  0  0  0  0  0  0  0  0  0
    3.0314   13.1434   12.0855 C   0  0  0  0  0  3  0  0  0  0  0  0
    4.2523   12.3394   12.3951 C   0  0  0  0  0  3  0  0  0  0  0  0
    5.0701   12.1575   11.1136 C   0  0  0  0  0  3  0  0  0  0  0  0
    4.5488   12.9086   10.0722 O   0  0  0  0  0  0  0  0  0  0  0  0
    4.7303   12.3215    8.9079 O   0  0  0  0  0  0  0  0  0  0  0  0
    5.2850   11.0596    9.0813 C   0  0  2  0  0  0  0  0  0  0  0  0
    6.7227   11.1026    9.4856 C   0  0  0  0  0  0  0  0  0  0  0  0
    4.9857   10.1133    7.9646 C   0  0  0  0  0  3  0  0  0  0  0  0
    5.5655   10.4484    6.7623 O   0  0  0  0  0  0  0  0  0  0  0  0
    6.9206   10.1304    6.8388 C   0  0  2  0  0  0  0  0  0  0  0  0
    7.6884   11.3050    6.8600 N   0  0  0  0  0  0  0  0  0  0  0  0
    8.2920   11.7211    5.6523 C   0  0  2  0  0  0  0  0  0  0  0  0
    9.4414   12.5001    5.8998 O   0  0  0  0  0  0  0  0  0  0  0  0
    7.4176   12.4693    4.7069 C   0  0  2  0  0  0  0  0  0  0  0  0
    6.1055   12.0445    4.7366 O   0  0  0  0  0  0  0  0  0  0  0  0
    5.2845   12.8590    5.4802 C   0  0  0  0  0  0  0  0  0  0  0  0
    3.8628   12.3599    5.3461 C   0  0  0  0  0  3  0  0  0  0  0  0
    3.5840   12.1299    3.8805 C   0  0  0  0  0  3  0  0  0  0  0  0
    4.9046   12.2105    3.1529 C   0  0  0  0  0  3  0  0  0  0  0  0
    5.1606   10.9412    2.3574 C   0  0  0  0  0  2  0  0  0  0  0  0
   10.2138    6.9447    6.6304 N   0  0  0  0  0  0  0  0  0  0  0  0
    9.4756    8.1919    6.6627 C   0  0  0  0  0  3  0  0  0  0  0  0
    7.9873    7.9341    6.6108 C   0  0  0  0  0  0  0  0  0  0  0  0
    7.2771    9.0671    5.8991 C   0  0  2  0  0  0  0  0  0  0  0  0
    8.0589    9.4483    4.7008 C   0  0  0  0  0  3  0  0  0  0  0  0
    7.1904    9.3786    3.5867 O   0  0  0  0  0  0  0  0  0  0  0  0
    7.8627    9.1352    2.4128 C   0  0  0  0  0  3  0  0  0  0  0  0
    8.7878   10.2705    2.0909 C   0  0  1  0  0  0  0  0  0  0  0  0
    8.4160   11.0386    0.8655 C   0  0  0  0  0  0  0  0  0  0  0  0
    8.9928   11.1353    3.2913 C   0  0  0  0  0  3  0  0  0  0  0  0
    8.0416   12.3389    3.3142 C   0  0  2  0  0  0  0  0  0  0  0  0
    8.9467   13.5597    3.1412 C   0  0  0  0  0  3  0  0  0  0  0  0
    8.5655   14.6738    4.0844 C   0  0  0  0  0  3  0  0  0  0  0  0
    7.2171   15.6216    3.3473 S   0  0  0  0  0  0  0  0  0  0  0  0
    5.7272   15.3826    4.3452 C   0  0  0  0  0  3  0  0  0  0  0  0
    6.0653   15.2006    5.8117 C   0  0  0  0  0  3  0  0  0  0  0  0
    7.2549   14.2783    5.9417 C   0  0  0  0  0  3  0  0  0  0  0  0
    7.5285   13.9363    7.7172 S   0  0  0  0  0  0  0  0  0  0  0  0
    6.0164   14.3533    8.6272 C   0  0  0  0  0  2  0  0  0  0  0  0
  1  2  1  0
  2  3  1  0
  3  4  1  0
  5  4  1  6
  5  6  1  0
  6  7  1  0
  7  8  1  0
  8  9  1  0
  9 10  1  0
 10 11  1  0
 11 12  1  6
 11 13  1  0
 13 14  1  0
 11 15  1  0
 15 16  1  0
 16 17  1  0
 17 18  1  0
 18 19  1  1
 18 20  1  0
 20 21  1  0
 21 22  1  0
 22 23  1  0
 23 24  1  0
 24 25  1  0
 25 26  1  0
 26 27  1  0
 27 28  1  0
 28 29  1  0
 29 30  1  0
 30 31  1  0
 31 32  1  0
 32 33  1  0
 33 34  1  0
 34 35  1  0
 35 36  1  0
 36 37  1  0
 37 38  1  0
 38 39  1  0
 39 40  1  0
 40 41  1  0
 41 42  1  0
 42 43  1  0
 43 44  1  0
 44 45  1  0
 45 46  1  0
 46 47  1  0
 47 48  1  0
 48 49  1  6
 48 50  1  0
 50 51  1  0
 51 52  1  0
 52 53  1  6
 53 54  1  0
 54 55  1  1
 54 56  1  0
 56 57  1  6
 57 58  1  0
 58 59  1  0
 59 60  1  0
 60 61  1  0
 61 62  1  0
  5 63  1  0
 63 64  1  0
 64 65  1  0
 66 65  1  1
 66 67  1  0
 67 68  1  0
 68 69  1  0
 69 70  1  0
 70 71  1  6
 70 72  1  0
 72 73  1  0
 73 74  1  1
 74 75  1  0
 75 76  1  0
 76 77  1  0
 77 78  1  0
 78 79  1  0
 79 80  1  0
 80 81  1  0
 66 52  1  0
 73 56  1  0
M  RAD  8   3   2   7   2   8   2   9   2  12   3  20   2  22   2  23   2
M  RAD  8  25   2  27   2  31   2  32   2  34   2  35   2  36   2  38   2
M  RAD  8  40   2  41   2  43   2  44   2  45   2  50   2  59   2  60   2
M  RAD  8  61   2  62   3  64   2  67   2  69   2  72   2  74   2  75   2
M  RAD  4  77   2  78   2  79   2  81   3
M  END
>  <docking_score>  (1) 
157.084

$$$$
