
     RDKit          3D

 23 22  0  0  0  0  0  0  0  0999 V2000
   15.2354   -2.7218   -7.8146 C   0  0  0  0  0  0  0  0  0  0  0  0
   15.6942   -2.5007   -6.3530 C   0  0  0  0  0  0  0  0  0  0  0  0
   14.6197   -2.2110   -5.3840 C   0  0  0  0  0  0  0  0  0  0  0  0
   16.9073   -1.6262   -6.3771 C   0  0  0  0  0  0  0  0  0  0  0  0
   18.1017   -1.9282   -6.9078 C   0  0  0  0  0  0  0  0  0  0  0  0
   19.3451   -1.4131   -7.1421 C   0  0  0  0  0  0  0  0  0  0  0  0
   20.5960   -1.9903   -7.6095 C   0  0  1  0  0  0  0  0  0  0  0  0
   21.3796   -2.6499   -6.4203 C   0  0  0  0  0  0  0  0  0  0  0  0
   20.4655   -2.9723   -8.6979 C   0  0  0  0  0  3  0  0  0  0  0  0
   20.8698   -4.3118   -8.2171 C   0  0  0  0  0  0  0  0  0  0  0  0
   19.9397   -5.1142   -7.7228 C   0  0  0  0  0  0  0  0  0  0  0  0
   18.6928   -5.4778   -7.4367 C   0  0  1  0  0  0  0  0  0  0  0  0
   17.6259   -5.5538   -8.5425 C   0  0  0  0  0  0  0  0  0  0  0  0
   18.4552   -6.6362   -6.5943 C   0  0  0  0  0  3  0  0  0  0  0  0
   17.9819   -6.1442   -5.1389 C   0  0  0  0  0  0  0  0  0  0  0  0
   16.7621   -6.7984   -4.9807 C   0  0  1  0  0  0  0  0  0  0  0  0
   16.6698   -8.1113   -5.3907 N   0  0  0  0  0  0  0  0  0  0  0  0
   15.4727   -6.2450   -4.2200 C   0  0  0  0  0  0  0  0  0  0  0  0
   15.8739   -5.2313   -3.6693 C   0  0  0  0  0  0  0  0  0  0  0  0
   16.3376   -4.0333   -2.9946 C   0  0  0  0  0  0  0  0  0  0  0  0
   16.8681   -2.6252   -2.1753 C   0  0  0  0  0  0  0  0  0  0  0  0
   18.1968   -2.6993   -2.6838 O   0  0  0  0  0  0  0  0  0  0  0  0
   18.6486   -1.4499   -2.2466 O   0  0  0  0  0  0  0  0  0  0  0  0
  1  2  1  0
  2  3  1  0
  2  4  1  0
  4  5  1  0
  5  6  1  0
  6  7  1  0
  7  8  1  1
  7  9  1  0
  9 10  1  0
 10 11  1  0
 11 12  1  0
 12 13  1  6
 12 14  1  0
 14 15  1  0
 15 16  1  0
 16 17  1  1
 16 18  1  0
 18 19  1  0
 19 20  3  0
 20 21  1  0
 21 22  1  0
 22 23  1  0
M  RAD  2   9   2  14   2
M  END
>  <docking_score>  (1) 
-3.0609999999999999

$$$$

     RDKit          3D

 23 22  0  0  0  0  0  0  0  0999 V2000
   21.2602   -6.2036   -7.7710 C   0  0  0  0  0  0  0  0  0  0  0  0
   20.4031   -5.1649   -7.0080 C   0  0  0  0  0  0  0  0  0  0  0  0
   19.2860   -4.5756   -7.7709 C   0  0  0  0  0  0  0  0  0  0  0  0
   21.3307   -4.2605   -6.2606 C   0  0  0  0  0  0  0  0  0  0  0  0
   21.3180   -2.9191   -6.2656 C   0  0  0  0  0  0  0  0  0  0  0  0
   20.5609   -1.8410   -5.9041 C   0  0  0  0  0  0  0  0  0  0  0  0
   20.7446   -0.7666   -4.9408 C   0  0  1  0  0  0  0  0  0  0  0  0
   21.1937    0.5529   -5.6624 C   0  0  0  0  0  0  0  0  0  0  0  0
   19.5750   -0.4744   -4.0967 C   0  0  0  0  0  3  0  0  0  0  0  0
   19.0159   -1.7343   -3.5593 C   0  0  0  0  0  0  0  0  0  0  0  0
   17.7215   -1.9682   -3.7115 C   0  0  0  0  0  0  0  0  0  0  0  0
   16.4986   -1.7134   -4.1680 C   0  0  1  0  0  0  0  0  0  0  0  0
   15.3739   -1.2969   -3.2046 C   0  0  0  0  0  0  0  0  0  0  0  0
   16.3275   -0.8761   -5.3419 C   0  0  0  0  0  3  0  0  0  0  0  0
   14.9053   -1.1977   -6.0188 C   0  0  0  0  0  0  0  0  0  0  0  0
   15.1169   -2.4533   -6.5843 C   0  0  1  0  0  0  0  0  0  0  0  0
   16.2025   -2.6170   -7.4178 N   0  0  0  0  0  0  0  0  0  0  0  0
   14.3232   -3.7974   -6.2509 C   0  0  0  0  0  0  0  0  0  0  0  0
   15.1582   -4.4978   -5.6994 C   0  0  0  0  0  0  0  0  0  0  0  0
   16.1417   -5.3495   -5.0573 C   0  0  0  0  0  0  0  0  0  0  0  0
   17.2917   -6.3783   -4.3124 C   0  0  0  0  0  0  0  0  0  0  0  0
   18.3412   -5.4158   -4.3563 O   0  0  0  0  0  0  0  0  0  0  0  0
   18.5147   -5.2456   -2.9789 O   0  0  0  0  0  0  0  0  0  0  0  0
  1  2  1  0
  2  3  1  0
  2  4  1  0
  4  5  1  0
  5  6  1  0
  6  7  1  0
  7  8  1  6
  7  9  1  0
  9 10  1  0
 10 11  1  0
 11 12  1  0
 12 13  1  1
 12 14  1  0
 14 15  1  0
 15 16  1  0
 16 17  1  1
 16 18  1  0
 18 19  1  0
 19 20  3  0
 20 21  1  0
 21 22  1  0
 22 23  1  0
M  RAD  2   9   2  14   2
M  END
>  <docking_score>  (2) 
-2.3620000000000001

$$$$

     RDKit          3D

 23 22  0  0  0  0  0  0  0  0999 V2000
   20.8579   -3.2885   -6.2661 C   0  0  0  0  0  0  0  0  0  0  0  0
   19.7113   -4.2949   -6.5270 C   0  0  0  0  0  0  0  0  0  0  0  0
   20.0375   -5.4126   -7.4336 C   0  0  0  0  0  0  0  0  0  0  0  0
   18.4557   -3.5152   -6.7560 C   0  0  0  0  0  0  0  0  0  0  0  0
   17.2740   -3.7041   -6.1498 C   0  0  0  0  0  0  0  0  0  0  0  0
   16.1263   -4.4420   -6.2185 C   0  0  0  0  0  0  0  0  0  0  0  0
   15.8547   -5.8709   -6.2399 C   0  0  1  0  0  0  0  0  0  0  0  0
   16.6348   -6.5650   -7.4117 C   0  0  0  0  0  0  0  0  0  0  0  0
   16.1452   -6.5833   -4.9854 C   0  0  0  0  0  3  0  0  0  0  0  0
   17.5472   -7.0558   -4.9890 C   0  0  0  0  0  0  0  0  0  0  0  0
   18.3187   -6.7567   -3.9552 C   0  0  0  0  0  0  0  0  0  0  0  0
   18.8688   -5.9400   -3.0612 C   0  0  1  0  0  0  0  0  0  0  0  0
   20.3373   -5.5029   -3.1991 C   0  0  0  0  0  0  0  0  0  0  0  0
   18.1531   -4.7507   -2.6352 C   0  0  0  0  0  3  0  0  0  0  0  0
   19.0119   -3.4485   -3.0238 C   0  0  0  0  0  0  0  0  0  0  0  0
   18.1038   -2.4134   -2.8116 C   0  0  1  0  0  0  0  0  0  0  0  0
   18.3991   -1.1717   -3.3324 N   0  0  0  0  0  0  0  0  0  0  0  0
   16.6536   -2.5340   -2.1561 C   0  0  0  0  0  0  0  0  0  0  0  0
   15.9166   -2.0266   -2.9875 C   0  0  0  0  0  0  0  0  0  0  0  0
   15.0287   -1.4123   -3.9567 C   0  0  0  0  0  0  0  0  0  0  0  0
   13.9646   -0.6758   -5.0796 C   0  0  0  0  0  0  0  0  0  0  0  0
   14.9875   -0.4002   -6.0321 O   0  0  0  0  0  0  0  0  0  0  0  0
   16.0695   -0.9333   -5.3240 O   0  0  0  0  0  0  0  0  0  0  0  0
  1  2  1  0
  2  3  1  0
  2  4  1  0
  4  5  1  0
  5  6  1  0
  6  7  1  0
  7  8  1  6
  7  9  1  0
  9 10  1  0
 10 11  1  0
 11 12  1  0
 12 13  1  6
 12 14  1  0
 14 15  1  0
 15 16  1  0
 16 17  1  6
 16 18  1  0
 18 19  1  0
 19 20  3  0
 20 21  1  0
 21 22  1  0
 22 23  1  0
M  RAD  2   9   2  14   2
M  END
>  <docking_score>  (3) 
-2.1040000000000001

$$$$
