
     RDKit          3D

 18 17  0  0  0  0  0  0  0  0999 V2000
   13.8434   -0.3114   -4.5444 C   0  0  0  0  0  0  0  0  0  0  0  0
   14.3999   -1.0026   -5.6027 O   0  0  0  0  0  0  0  0  0  0  0  0
   14.2310   -2.4207   -5.1872 C   0  0  0  0  0  3  0  0  0  0  0  0
   15.0903   -2.5521   -4.0878 O   0  0  0  0  0  0  0  0  0  0  0  0
   15.9400   -3.5802   -4.2223 C   0  0  2  0  0  0  0  0  0  0  0  0
   16.9252   -3.0991   -3.0305 C   0  0  0  0  0  0  0  0  0  0  0  0
   16.5417   -4.2864   -1.9696 C   0  0  0  0  0  0  0  0  0  0  0  0
   16.6993   -3.8267   -5.4162 C   0  0  1  0  0  0  0  0  0  0  0  0
   17.8204   -3.0525   -5.7013 N   0  0  0  0  0  0  0  0  0  0  0  0
   17.6811   -2.0051   -6.7356 C   0  0  0  0  0  3  0  0  0  0  0  0
   18.2082   -2.7352   -8.0342 C   0  0  0  0  0  3  0  0  0  0  0  0
   19.5048   -2.0753   -8.4801 C   0  0  0  0  0  0  0  0  0  0  0  0
   17.1275   -5.4035   -5.2455 C   0  0  0  0  0  0  0  0  0  0  0  0
   17.0794   -5.8821   -6.5637 O   0  0  0  0  0  0  0  0  0  0  0  0
   15.9048   -5.8567   -7.1708 C   0  0  0  0  0  3  0  0  0  0  0  0
   15.7210   -5.5015   -8.6070 C   0  0  0  0  0  0  0  0  0  0  0  0
   14.5527   -4.4929   -8.5776 C   0  0  0  0  0  0  0  0  0  0  0  0
   14.7818   -3.3335   -8.5822 O   0  0  0  0  0  0  0  0  0  0  0  0
  1  2  1  0
  2  3  1  0
  3  4  1  0
  4  5  1  0
  5  6  1  1
  6  7  1  0
  5  8  1  0
  8  9  1  0
  9 10  1  0
 10 11  1  0
 11 12  1  0
  8 13  1  1
 13 14  1  0
 14 15  1  0
 15 16  1  0
 16 17  1  0
 17 18  2  0
M  RAD  4   3   2  10   2  11   2  15   2
M  END
>  <docking_score>  (1) 
-2.9769999999999999

$$$$

     RDKit          3D

 18 17  0  0  0  0  0  0  0  0999 V2000
   15.7675   -0.9848   -1.4521 C   0  0  0  0  0  0  0  0  0  0  0  0
   16.2307   -2.1553   -2.0203 O   0  0  0  0  0  0  0  0  0  0  0  0
   15.8923   -1.9731   -3.4571 C   0  0  0  0  0  3  0  0  0  0  0  0
   16.8689   -2.7210   -4.1287 O   0  0  0  0  0  0  0  0  0  0  0  0
   16.5676   -4.0262   -4.1816 C   0  0  2  0  0  0  0  0  0  0  0  0
   18.0872   -4.5050   -4.4712 C   0  0  0  0  0  0  0  0  0  0  0  0
   18.5196   -4.7363   -2.9085 C   0  0  0  0  0  0  0  0  0  0  0  0
   15.6806   -4.5933   -5.1585 C   0  0  1  0  0  0  0  0  0  0  0  0
   16.0263   -4.5759   -6.5068 N   0  0  0  0  0  0  0  0  0  0  0  0
   15.0802   -3.9353   -7.4454 C   0  0  0  0  0  3  0  0  0  0  0  0
   15.5476   -2.4259   -7.4242 C   0  0  0  0  0  3  0  0  0  0  0  0
   17.0169   -2.3582   -7.8140 C   0  0  0  0  0  0  0  0  0  0  0  0
   15.5187   -6.1419   -4.6345 C   0  0  0  0  0  0  0  0  0  0  0  0
   16.0110   -6.8881   -5.7162 O   0  0  0  0  0  0  0  0  0  0  0  0
   16.6632   -8.0026   -5.4312 C   0  0  0  0  0  3  0  0  0  0  0  0
   18.1456   -8.0845   -5.2961 C   0  0  0  0  0  0  0  0  0  0  0  0
   18.6081   -8.5153   -6.7045 C   0  0  0  0  0  0  0  0  0  0  0  0
   17.8884   -9.1619   -7.3833 O   0  0  0  0  0  0  0  0  0  0  0  0
  1  2  1  0
  2  3  1  0
  3  4  1  0
  4  5  1  0
  5  6  1  6
  6  7  1  0
  5  8  1  0
  8  9  1  0
  9 10  1  0
 10 11  1  0
 11 12  1  0
  8 13  1  1
 13 14  1  0
 14 15  1  0
 15 16  1  0
 16 17  1  0
 17 18  2  0
M  RAD  4   3   2  10   2  11   2  15   2
M  END
>  <docking_score>  (2) 
-2.6680000000000001

$$$$

     RDKit          3D

 18 17  0  0  0  0  0  0  0  0999 V2000
   14.6342   -7.0124   -4.6105 C   0  0  0  0  0  0  0  0  0  0  0  0
   14.8453   -6.4075   -5.8341 O   0  0  0  0  0  0  0  0  0  0  0  0
   14.4309   -5.0026   -5.5759 C   0  0  0  0  0  3  0  0  0  0  0  0
   15.1383   -4.2634   -6.5337 O   0  0  0  0  0  0  0  0  0  0  0  0
   15.9929   -3.3921   -5.9790 C   0  0  2  0  0  0  0  0  0  0  0  0
   16.6807   -2.9647   -7.3815 C   0  0  0  0  0  0  0  0  0  0  0  0
   15.3467   -2.2964   -8.0568 C   0  0  0  0  0  0  0  0  0  0  0  0
   17.0046   -3.7712   -5.0327 C   0  0  1  0  0  0  0  0  0  0  0  0
   17.9840   -4.6930   -5.3914 N   0  0  0  0  0  0  0  0  0  0  0  0
   18.7700   -5.3117   -4.3026 C   0  0  0  0  0  3  0  0  0  0  0  0
   18.3650   -6.8352   -4.4122 C   0  0  0  0  0  3  0  0  0  0  0  0
   18.2762   -7.2182   -5.8822 C   0  0  0  0  0  0  0  0  0  0  0  0
   17.6945   -2.3292   -4.6537 C   0  0  0  0  0  0  0  0  0  0  0  0
   16.8892   -1.8675   -3.6013 O   0  0  0  0  0  0  0  0  0  0  0  0
   17.2996   -2.1268   -2.3711 C   0  0  0  0  0  3  0  0  0  0  0  0
   18.7068   -2.4739   -2.0222 C   0  0  0  0  0  0  0  0  0  0  0  0
   19.3332   -1.1079   -1.6690 C   0  0  0  0  0  0  0  0  0  0  0  0
   20.3158   -0.7551   -2.2230 O   0  0  0  0  0  0  0  0  0  0  0  0
  1  2  1  0
  2  3  1  0
  3  4  1  0
  4  5  1  0
  5  6  1  6
  6  7  1  0
  5  8  1  0
  8  9  1  0
  9 10  1  0
 10 11  1  0
 11 12  1  0
  8 13  1  6
 13 14  1  0
 14 15  1  0
 15 16  1  0
 16 17  1  0
 17 18  2  0
M  RAD  4   3   2  10   2  11   2  15   2
M  END
>  <docking_score>  (3) 
-2.6389999999999998

$$$$
