
     RDKit          3D

 29 31  0  0  0  0  0  0  0  0999 V2000
   15.9321   -2.1859   -3.8522 C   0  0  0  0  0  0  0  0  0  0  0  0
   14.6699   -1.6709   -3.8461 O   0  0  0  0  0  0  0  0  0  0  0  0
   14.1820   -0.7679   -4.7418 C   0  0  0  0  0  0  0  0  0  0  0  0
   14.9461   -0.3158   -5.7200 C   0  0  0  0  0  0  0  0  0  0  0  0
   16.2992   -0.8086   -5.8022 C   0  0  0  0  0  0  0  0  0  0  0  0
   16.7703   -1.6716   -4.9486 C   0  0  0  0  0  0  0  0  0  0  0  0
   18.1924   -2.1338   -5.1058 C   0  0  1  0  0  0  0  0  0  0  0  0
   18.9387   -1.0958   -5.8895 C   0  0  0  0  0  0  0  0  0  0  0  0
   18.8090   -2.3321   -3.7466 C   0  0  0  0  0  0  0  0  0  0  0  0
   19.1335   -1.2117   -3.0691 C   0  0  0  0  0  0  0  0  0  0  0  0
   19.8586   -1.3233   -1.4744 S   0  0  0  0  0  0  0  0  0  0  0  0
   20.0462   -3.0630   -1.0477 C   0  0  0  0  0  0  0  0  0  0  0  0
   19.5579   -3.9396   -2.0701 C   0  0  0  0  0  0  0  0  0  0  0  0
   19.0128   -3.6644   -3.2577 C   0  0  0  0  0  0  0  0  0  0  0  0
   18.6075   -4.8581   -3.9760 C   0  0  0  0  0  0  0  0  0  0  0  0
   17.5125   -5.5160   -3.8193 C   0  0  0  0  0  0  0  0  0  0  0  0
   17.1707   -6.6646   -4.5409 N   0  0  0  0  0  0  0  0  0  0  0  0
   17.2877   -6.8361   -5.9529 C   0  0  1  0  0  0  0  0  0  0  0  0
   17.5947   -8.2347   -6.3449 C   0  0  0  0  0  0  0  0  0  0  0  0
   18.2080   -8.4557   -7.4931 C   0  0  0  0  0  0  0  0  0  0  0  0
   18.6047   -9.7578   -8.0711 C   0  0  0  0  0  0  0  0  0  0  0  0
   18.0001  -10.9258   -7.8030 C   0  0  0  0  0  0  0  0  0  0  0  0
   16.8604  -11.2573   -6.9339 C   0  0  0  0  0  0  0  0  0  0  0  0
   16.8699  -10.5229   -5.6426 C   0  0  0  0  0  0  0  0  0  0  0  0
   17.1767   -9.2592   -5.3955 C   0  0  0  0  0  0  0  0  0  0  0  0
   16.1183   -6.3634   -6.5450 O   0  0  0  0  0  0  0  0  0  0  0  0
   15.0847   -6.4943   -5.6477 C   0  0  0  0  0  0  0  0  0  0  0  0
   13.9084   -5.1628   -5.9248 S   0  0  0  0  0  0  0  0  0  0  0  0
   14.6459   -4.0513   -6.8209 C   0  0  0  0  0  0  0  0  0  0  0  0
  1  2  1  0
  2  3  1  0
  3  4  2  0
  4  5  1  0
  5  6  2  0
  6  7  1  0
  7  8  1  6
  7  9  1  0
  9 10  2  0
 10 11  1  0
 11 12  1  0
 12 13  1  0
 13 14  2  0
 14 15  1  0
 15 16  2  3
 16 17  1  0
 18 17  1  1
 18 19  1  0
 19 20  2  0
 20 21  1  0
 21 22  2  0
 22 23  1  0
 23 24  1  0
 24 25  2  0
 18 26  1  0
 26 27  1  0
 27 28  1  0
 28 29  2  0
  6  1  1  0
 14  9  1  0
 25 19  1  0
M  END
>  <docking_score>  (1) 
-4.8920000000000003

$$$$

     RDKit          3D

 29 31  0  0  0  0  0  0  0  0999 V2000
   16.8435   -1.1880   -5.3378 C   0  0  0  0  0  0  0  0  0  0  0  0
   15.5983   -1.2243   -5.8911 O   0  0  0  0  0  0  0  0  0  0  0  0
   15.2935   -1.7389   -7.1150 C   0  0  0  0  0  0  0  0  0  0  0  0
   16.2391   -2.2602   -7.8761 C   0  0  0  0  0  0  0  0  0  0  0  0
   17.5890   -2.2634   -7.3680 C   0  0  0  0  0  0  0  0  0  0  0  0
   17.8854   -1.7728   -6.1990 C   0  0  0  0  0  0  0  0  0  0  0  0
   19.3182   -1.8156   -5.7449 C   0  0  1  0  0  0  0  0  0  0  0  0
   19.9617   -0.5086   -6.0998 C   0  0  0  0  0  0  0  0  0  0  0  0
   19.3669   -2.0566   -4.2594 C   0  0  0  0  0  0  0  0  0  0  0  0
   19.5369   -0.9667   -3.4831 C   0  0  0  0  0  0  0  0  0  0  0  0
   19.6085   -1.1294   -1.7367 S   0  0  0  0  0  0  0  0  0  0  0  0
   19.4397   -2.8718   -1.3134 C   0  0  0  0  0  0  0  0  0  0  0  0
   19.2712   -3.7075   -2.4646 C   0  0  0  0  0  0  0  0  0  0  0  0
   19.2336   -3.3948   -3.7625 C   0  0  0  0  0  0  0  0  0  0  0  0
   18.9963   -4.5496   -4.6082 C   0  0  0  0  0  0  0  0  0  0  0  0
   18.6619   -5.7308   -4.2217 C   0  0  0  0  0  0  0  0  0  0  0  0
   18.4447   -6.8119   -5.0824 N   0  0  0  0  0  0  0  0  0  0  0  0
   18.0468   -6.7304   -6.4505 C   0  0  1  0  0  0  0  0  0  0  0  0
   16.5995   -6.4462   -6.6189 C   0  0  0  0  0  0  0  0  0  0  0  0
   16.1831   -5.9015   -7.7473 C   0  0  0  0  0  0  0  0  0  0  0  0
   14.7988   -5.5389   -8.1201 C   0  0  0  0  0  0  0  0  0  0  0  0
   13.8283   -5.2367   -7.2434 C   0  0  0  0  0  0  0  0  0  0  0  0
   13.8264   -5.1742   -5.7736 C   0  0  0  0  0  0  0  0  0  0  0  0
   14.5935   -6.2748   -5.1353 C   0  0  0  0  0  0  0  0  0  0  0  0
   15.7529   -6.8070   -5.4881 C   0  0  0  0  0  0  0  0  0  0  0  0
   18.8508   -5.7820   -7.0797 O   0  0  0  0  0  0  0  0  0  0  0  0
   19.7927   -6.4352   -7.8391 C   0  0  0  0  0  0  0  0  0  0  0  0
   19.6478   -8.2028   -7.5424 S   0  0  0  0  0  0  0  0  0  0  0  0
   18.7679   -8.8183   -8.7380 C   0  0  0  0  0  0  0  0  0  0  0  0
  1  2  1  0
  2  3  1  0
  3  4  2  0
  4  5  1  0
  5  6  2  0
  6  7  1  0
  7  8  1  1
  7  9  1  0
  9 10  2  0
 10 11  1  0
 11 12  1  0
 12 13  1  0
 13 14  2  0
 14 15  1  0
 15 16  2  3
 16 17  1  0
 18 17  1  1
 18 19  1  0
 19 20  2  0
 20 21  1  0
 21 22  2  0
 22 23  1  0
 23 24  1  0
 24 25  2  0
 18 26  1  0
 26 27  1  0
 27 28  1  0
 28 29  2  0
  6  1  1  0
 14  9  1  0
 25 19  1  0
M  END
>  <docking_score>  (2) 
-4.2050000000000001

$$$$

     RDKit          3D

 29 31  0  0  0  0  0  0  0  0999 V2000
   20.4466   -3.1957   -7.2206 C   0  0  0  0  0  0  0  0  0  0  0  0
   19.8110   -2.2016   -7.9032 O   0  0  0  0  0  0  0  0  0  0  0  0
   18.4683   -2.1279   -8.1211 C   0  0  0  0  0  0  0  0  0  0  0  0
   17.6626   -3.0669   -7.6579 C   0  0  0  0  0  0  0  0  0  0  0  0
   18.2517   -4.1587   -6.9222 C   0  0  0  0  0  0  0  0  0  0  0  0
   19.5343   -4.2337   -6.7113 C   0  0  0  0  0  0  0  0  0  0  0  0
   20.0667   -5.4060   -5.9345 C   0  0  1  0  0  0  0  0  0  0  0  0
   20.4238   -4.9323   -4.5573 C   0  0  0  0  0  0  0  0  0  0  0  0
   19.0216   -6.4885   -5.8801 C   0  0  0  0  0  0  0  0  0  0  0  0
   19.1159   -7.4566   -6.8147 C   0  0  0  0  0  0  0  0  0  0  0  0
   17.9507   -8.7692   -6.8463 S   0  0  0  0  0  0  0  0  0  0  0  0
   16.7624   -8.5164   -5.5167 C   0  0  0  0  0  0  0  0  0  0  0  0
   17.0389   -7.3432   -4.7427 C   0  0  0  0  0  0  0  0  0  0  0  0
   18.0097   -6.4344   -4.8660 C   0  0  0  0  0  0  0  0  0  0  0  0
   17.9550   -5.4157   -3.8343 C   0  0  0  0  0  0  0  0  0  0  0  0
   16.9186   -5.0581   -3.1602 C   0  0  0  0  0  0  0  0  0  0  0  0
   16.9214   -4.0667   -2.1733 N   0  0  0  0  0  0  0  0  0  0  0  0
   16.7742   -2.6639   -2.3906 C   0  0  1  0  0  0  0  0  0  0  0  0
   18.0626   -1.9805   -2.6682 C   0  0  0  0  0  0  0  0  0  0  0  0
   18.7979   -1.5676   -1.6522 C   0  0  0  0  0  0  0  0  0  0  0  0
   20.1017   -0.8716   -1.7028 C   0  0  0  0  0  0  0  0  0  0  0  0
   20.5211   -0.1138   -2.7283 C   0  0  0  0  0  0  0  0  0  0  0  0
   19.8839    0.2358   -4.0073 C   0  0  0  0  0  0  0  0  0  0  0  0
   19.1628   -0.9002   -4.6371 C   0  0  0  0  0  0  0  0  0  0  0  0
   18.4011   -1.8271   -4.0780 C   0  0  0  0  0  0  0  0  0  0  0  0
   15.8444   -2.4789   -3.4117 O   0  0  0  0  0  0  0  0  0  0  0  0
   15.2737   -1.2360   -3.2697 C   0  0  0  0  0  0  0  0  0  0  0  0
   14.6513   -0.7011   -4.8697 S   0  0  0  0  0  0  0  0  0  0  0  0
   13.0562   -0.5574   -4.7391 C   0  0  0  0  0  0  0  0  0  0  0  0
  1  2  1  0
  2  3  1  0
  3  4  2  0
  4  5  1  0
  5  6  2  0
  6  7  1  0
  7  8  1  1
  7  9  1  0
  9 10  2  0
 10 11  1  0
 11 12  1  0
 12 13  1  0
 13 14  2  0
 14 15  1  0
 15 16  2  3
 16 17  1  0
 18 17  1  6
 18 19  1  0
 19 20  2  0
 20 21  1  0
 21 22  2  0
 22 23  1  0
 23 24  1  0
 24 25  2  0
 18 26  1  0
 26 27  1  0
 27 28  1  0
 28 29  2  0
  6  1  1  0
 14  9  1  0
 25 19  1  0
M  END
>  <docking_score>  (3) 
-3.7080000000000002

$$$$
