
     RDKit          3D

 78 79  0  0  0  0  0  0  0  0999 V2000
    5.7359   14.4512    3.9405 C   0  0  0  0  0  0  0  0  0  0  0  0
    5.1972   14.7923    2.5828 O   0  0  0  0  0  0  0  0  0  0  0  0
    4.5176   14.4834    1.2818 C   0  0  0  0  0  3  0  0  0  0  0  0
    3.8317   13.5856    0.2950 O   0  0  0  0  0  0  0  0  0  0  0  0
    3.2754   12.2768   -0.1819 C   0  0  0  0  0  0  0  0  0  0  0  0
    2.7367   12.6179   -1.5396 C   0  0  0  0  0  0  0  0  0  0  0  0
    2.9589   10.8160   -0.0545 C   0  0  0  0  0  3  0  0  0  0  0  0
    2.9448    9.4929    0.6519 C   0  0  0  0  0  0  0  0  0  0  0  0
    2.2590    8.5951   -0.3348 N   0  0  0  0  0  0  0  0  0  0  0  0
    2.4656    8.8012   -1.8062 C   0  0  0  0  0  3  0  0  0  0  0  0
    3.7076    8.2831   -2.4689 C   0  0  0  0  0  0  0  0  0  0  0  0
    4.9684    8.5333   -3.2419 C   0  0  0  0  0  0  0  0  0  0  0  0
    4.5978    7.1354   -2.8438 O   0  0  0  0  0  0  0  0  0  0  0  0
    3.2360    8.5692    1.7973 C   0  0  0  0  0  3  0  0  0  0  0  0
    3.7747    8.2281    3.1551 O   0  0  0  0  0  0  0  0  0  0  0  0
    4.4543    8.5370    4.4561 C   0  0  0  0  0  3  0  0  0  0  0  0
    5.1402    9.4348    5.4428 C   0  0  0  0  0  3  0  0  0  0  0  0
    5.6965   10.7437    5.9197 C   0  0  0  0  0  0  0  0  0  0  0  0
    6.2352   10.4025    7.2775 C   0  0  0  0  0  0  0  0  0  0  0  0
    6.0130   12.2044    5.7923 N   0  0  0  0  0  0  0  0  0  0  0  0
    6.0271   13.5276    5.0860 C   0  0  0  0  0  0  0  0  0  0  0  0
    6.7129   14.4253    6.0726 C   0  0  0  0  0  0  0  0  0  0  0  0
    6.7402   15.9077    5.8450 F   0  0  0  0  0  0  0  0  0  0  0  0
    7.3715   13.8407    7.2870 C   0  0  0  0  0  3  0  0  0  0  0  0
    7.8339   12.4138    7.2757 O   0  0  0  0  0  0  0  0  0  0  0  0
    7.6066   11.5614    6.0626 C   0  0  0  0  0  3  0  0  0  0  0  0
    8.7506   10.8098    5.4489 O   0  0  0  0  0  0  0  0  0  0  0  0
    8.5234    9.9580    4.2354 C   0  0  0  0  0  0  0  0  0  0  0  0
    7.3389   10.2131    3.3511 C   0  0  0  0  0  0  0  0  0  0  0  0
    6.5904    9.0610    2.7492 C   0  0  0  0  0  0  0  0  0  0  0  0
    5.4778    9.3158    1.7760 O   0  0  0  0  0  0  0  0  0  0  0  0
    9.4806    8.8510    3.9062 C   0  0  0  0  0  0  0  0  0  0  0  0
   10.9474    9.1397    3.7827 N   0  0  0  0  0  0  0  0  0  0  0  0
   11.8882    8.0631    3.3290 C   0  0  0  0  0  0  0  0  0  0  0  0
   11.7279    6.6624    3.8413 O   0  0  0  0  0  0  0  0  0  0  0  0
   12.9890    8.3872    2.3633 C   0  0  0  0  0  0  0  0  0  0  0  0
   14.1778    9.1800    2.8195 C   0  0  0  0  0  0  0  0  0  0  0  0
   15.5642    8.6686    2.5622 C   0  0  0  0  0  3  0  0  0  0  0  0
   16.6016    9.5775    1.9726 O   0  0  0  0  0  0  0  0  0  0  0  0
   17.1029   10.7528    2.7584 C   0  0  0  0  0  3  0  0  0  0  0  0
   17.3905   12.0512    2.0646 O   0  0  0  0  0  0  0  0  0  0  0  0
   17.4431   12.1056    0.5666 C   0  0  0  0  0  3  0  0  0  0  0  0
   18.1550   11.0296   -0.1985 C   0  0  0  0  0  0  0  0  0  0  0  0
   18.8584   11.3615   -1.4811 C   0  0  0  0  0  0  0  0  0  0  0  0
   18.1368   12.1144   -2.5593 N   0  0  0  0  0  0  0  0  0  0  0  0
   20.2835   10.9405   -1.6856 C   0  0  0  0  0  0  0  0  0  0  0  0
   21.3804   11.9631   -1.6488 C   0  0  0  0  0  2  0  0  0  0  0  0
   20.6119    9.4969   -1.9269 C   0  0  0  0  0  0  0  0  0  0  0  0
   20.1117    8.8105   -3.1632 C   0  0  0  0  0  3  0  0  0  0  0  0
   20.9340    7.7346   -3.8085 N   0  0  0  0  0  0  0  0  0  0  0  0
   20.5910    6.2917   -3.5833 O   0  0  0  0  0  0  0  0  0  0  0  0
   19.8856    5.5126   -4.6534 N   0  0  0  0  0  0  0  0  0  0  0  0
   20.5515    4.3216   -5.2765 C   0  0  0  0  0  3  0  0  0  0  0  0
   19.7483    3.3587   -6.0998 C   0  0  0  0  0  3  0  0  0  0  0  0
   18.5786    3.8503   -6.8999 C   0  0  0  0  0  3  0  0  0  0  0  0
   17.4211    2.9368   -7.1749 C   0  0  0  0  0  0  0  0  0  0  0  0
   17.4216    2.0740   -8.4019 N   0  0  0  0  0  1  0  0  0  0  0  0
   16.2630    2.8862   -6.2230 O   0  0  0  0  0  0  0  0  0  0  0  0
   16.1728    1.7841   -5.2093 C   0  0  0  0  0  0  0  0  0  0  0  0
   15.8239    0.3917   -5.6444 C   0  0  0  0  0  3  0  0  0  0  0  0
   14.4430   -0.1442   -5.4076 C   0  0  0  0  0  0  0  0  0  0  0  0
   13.5478    0.5095   -4.3972 O   0  0  0  0  0  0  0  0  0  0  0  0
   12.2060   -0.0852   -4.0877 C   0  0  0  0  0  3  0  0  0  0  0  0
   11.7552   -1.3282   -4.7960 C   0  0  0  0  0  0  0  0  0  0  0  0
   12.7108   -2.4676   -4.9928 C   0  0  0  0  0  2  0  0  0  0  0  0
   10.3489   -1.4319   -5.3075 N   0  0  0  0  0  0  0  0  0  0  0  0
    9.8447   -0.4470   -6.3203 C   0  0  0  0  0  0  0  0  0  0  0  0
   10.8090    0.2490   -7.2344 C   0  0  0  0  0  0  0  0  0  0  0  0
    8.3760   -0.1581   -6.4190 C   0  0  0  0  0  0  0  0  0  0  0  0
    7.7391    0.0394   -7.7626 N   0  0  0  0  0  0  0  0  0  0  0  0
    7.5444   -0.0666   -5.1740 N   0  0  0  0  0  4  0  0  0  0  0  0
    6.3291    0.2163   -6.0065 C   0  0  0  0  0  2  0  0  0  0  0  0
    6.7128    0.0248   -3.9289 F   0  0  0  0  0  0  0  0  0  0  0  0
    8.7598   -0.3496   -4.3415 C   0  0  0  0  0  3  0  0  0  0  0  0
    9.6040    0.7833   -3.8377 C   0  0  0  0  0  3  0  0  0  0  0  0
    8.9532    1.9951   -3.2394 C   0  0  0  0  0  0  0  0  0  0  0  0
    7.5227    2.3134   -3.5596 N   0  0  0  0  0  0  0  0  0  0  0  0
    6.7166    3.1655   -2.6248 N   0  0  0  0  0  0  0  0  0  0  0  0
  1  2  1  0
  2  3  1  0
  3  4  1  0
  4  5  1  0
  5  6  1  0
  5  7  1  0
  7  8  1  0
  8  9  1  0
  9 10  1  0
 10 11  1  0
 11 12  1  0
 11 13  1  0
  8 14  1  0
 14 15  1  0
 15 16  1  0
 16 17  1  0
 17 18  1  0
 18 19  1  0
 18 20  1  0
 20 21  1  0
 21 22  1  0
 22 23  1  0
 22 24  1  0
 24 25  1  0
 25 26  1  0
 26 27  1  0
 27 28  1  0
 28 29  1  0
 29 30  1  0
 30 31  1  0
 28 32  1  0
 32 33  1  0
 33 34  1  0
 34 35  1  0
 34 36  1  0
 36 37  1  0
 37 38  1  0
 38 39  1  0
 39 40  1  0
 40 41  1  0
 41 42  1  0
 42 43  1  0
 43 44  1  0
 44 45  1  0
 44 46  1  0
 46 47  1  0
 46 48  1  0
 48 49  1  0
 49 50  1  0
 50 51  1  0
 51 52  1  0
 52 53  1  0
 53 54  1  0
 54 55  1  0
 55 56  1  0
 56 57  1  0
 56 58  1  0
 58 59  1  0
 59 60  1  0
 60 61  1  0
 61 62  1  0
 62 63  1  0
 63 64  1  0
 64 65  1  0
 64 66  1  0
 66 67  1  0
 67 68  1  0
 67 69  1  0
 69 70  1  0
 69 71  1  0
 71 72  1  0
 71 73  1  0
 71 74  1  0
 74 75  1  0
 75 76  1  0
 76 77  1  0
 77 78  1  0
 21  1  1  0
 13 12  1  0
M  RAD  8   3   2   7   2  10   2  14   2  16   2  17   2  24   2  26   2
M  RAD  8  38   2  40   2  42   2  47   3  49   2  53   2  54   2  55   2
M  CHG  2  57   1  71   1
M  RAD  7  57   2  60   2  63   2  65   3  72   3  74   2  75   2
M  END
>  <docking_score>  (1) 
66.128

$$$$
