
     RDKit          3D

 40 43  0  0  0  0  0  0  0  0999 V2000
    3.2149   14.8034   13.7578 C   0  0  0  0  0  0  0  0  0  0  0  0
    4.6389   14.3792   13.9633 C   0  0  0  0  0  0  0  0  0  0  0  0
    6.0629   13.9549   14.1689 C   0  0  0  0  0  0  0  0  0  0  0  0
    4.7845   15.3968   15.0557 C   0  0  0  0  0  0  0  0  0  0  0  0
    4.4934   13.3615   12.8710 S   0  0  0  0  0  0  0  0  0  0  0  0
    3.9056   12.1830   13.5890 C   0  0  0  0  0  0  0  0  0  0  0  0
    3.3695   10.7849   13.6786 C   0  0  0  0  0  0  0  0  0  0  0  0
    3.0148   10.6558   15.1304 C   0  0  0  0  0  0  0  0  0  0  0  0
    2.9912    9.4443   13.1222 C   0  0  0  0  0  0  0  0  0  0  0  0
    2.7104    9.5260   14.5934 C   0  0  0  0  0  0  0  0  0  0  0  0
    2.4077    8.1633   13.6407 C   0  0  0  0  0  0  0  0  0  0  0  0
    2.8456    8.4266   12.0298 C   0  0  0  0  0  0  0  0  0  0  0  0
    2.2579    7.2480   12.7478 O   0  0  0  0  0  0  0  0  0  0  0  0
    2.9617    7.9335   10.6179 O   0  0  0  0  0  0  0  0  0  0  0  0
    3.5625    8.6270    8.9893 N   0  0  0  0  0  0  0  0  0  0  0  0
    3.1282    7.2403    8.6171 C   0  0  0  0  0  0  0  0  0  0  0  0
    3.1014    6.4422    7.3472 C   0  0  0  0  0  0  0  0  0  0  0  0
    2.9135    5.3488    6.3229 C   0  0  0  0  0  0  0  0  0  0  0  0
    3.2498    5.4237    4.8630 C   0  0  0  0  0  0  0  0  0  0  0  0
    3.8356    6.6808    4.2917 C   0  0  0  0  0  0  0  0  0  0  0  0
    4.1719    6.7557    2.8318 Cl  0  0  0  0  0  0  0  0  0  0  0  0
    4.0852    7.8632    5.1804 C   0  0  0  0  0  0  0  0  0  0  0  0
    3.4978    6.7003    5.9237 C   0  0  0  0  0  0  0  0  0  0  0  0
    4.1499    9.7900    8.2460 C   0  0  0  0  0  0  0  0  0  0  0  0
    4.5462   10.0479    6.8225 C   0  0  0  0  0  0  0  0  0  0  0  0
    4.8429   11.2950    7.6014 C   0  0  0  0  0  0  0  0  0  0  0  0
    5.3415   12.7055    7.7110 C   0  0  0  0  0  0  0  0  0  0  0  0
    5.9278   13.9562    7.1262 S   0  0  0  0  0  0  0  0  0  0  0  0
    6.4675   14.7606    5.9809 C   0  0  0  0  0  0  0  0  0  0  0  0
    6.8369   14.9344    4.5375 C   0  0  0  0  0  0  0  0  0  0  0  0
    6.9515   14.4379    3.1267 C   0  0  0  0  0  0  0  0  0  0  0  0
    6.7849   13.3846    2.0717 C   0  0  0  0  0  0  0  0  0  0  0  0
    6.3753   12.0161    1.6141 C   0  0  0  0  0  0  0  0  0  0  0  0
    5.8167   10.6457    1.8589 S   0  0  0  0  0  0  0  0  0  0  0  0
    5.2368    9.5874    2.7498 S   0  0  0  0  0  0  0  0  0  0  0  0
    4.7686    9.0836    4.0830 C   0  0  0  0  0  0  0  0  0  0  0  0
    4.5194    9.2498    5.5527 C   0  0  0  0  0  0  0  0  0  0  0  0
    5.4870   13.7231    8.8033 C   0  0  0  0  0  0  0  0  0  0  0  0
    5.3710   14.2163   10.2151 C   0  0  0  0  0  0  0  0  0  0  0  0
    5.0164   14.0872   11.6669 C   0  0  0  0  0  0  0  0  0  0  0  0
  1  2  1  0
  2  3  1  0
  2  4  1  0
  2  5  1  0
  5  6  2  3
  6  7  1  0
  7  8  1  0
  7  9  1  0
  9 10  1  0
  9 11  1  0
  9 12  1  0
 12 13  2  0
 12 14  1  0
 14 15  1  0
 15 16  1  0
 16 17  1  0
 17 18  2  0
 18 19  1  0
 19 20  2  0
 20 21  1  0
 20 22  1  0
 22 23  2  0
 15 24  1  0
 24 25  2  3
 25 26  1  0
 26 27  2  3
 27 28  1  0
 28 29  1  0
 29 30  1  0
 30 31  2  3
 31 32  1  0
 32 33  2  3
 33 34  1  0
 34 35  1  0
 35 36  1  0
 36 37  2  3
 27 38  1  0
 38 39  1  0
 39 40  2  3
 40  5  1  0
 23 17  1  0
 37 22  1  0
 37 25  1  0
M  END
>  <docking_score>  (1) 
-6.8159999999999998

$$$$
