
     RDKit          3D

 22 27  0  0  0  0  0  0  0  0999 V2000
   17.5697   -3.2228   -3.0679 C   0  0  0  0  0  0  0  0  0  0  0  0
   18.4496   -2.4415   -2.1377 C   0  0  0  0  0  0  0  0  0  0  0  0
   19.7046   -3.0595   -1.5966 C   0  0  0  0  0  0  0  0  0  0  0  0
   20.0798   -4.4587   -1.9856 C   0  0  0  0  0  0  0  0  0  0  0  0
   19.1999   -5.2400   -2.9159 C   0  0  0  0  0  0  0  0  0  0  0  0
   17.9449   -4.6220   -3.4570 C   0  0  0  0  0  0  0  0  0  0  0  0
   19.2013   -6.7546   -3.6019 C   0  0  0  0  0  0  0  0  0  0  0  0
   18.3214   -7.5359   -4.5322 C   0  0  0  0  0  0  0  0  0  0  0  0
   17.0563   -7.4834   -5.3364 C   0  0  0  0  0  0  0  0  0  0  0  0
   15.8893   -6.6172   -5.7073 C   0  0  0  0  0  0  0  0  0  0  0  0
   15.2660   -5.2681   -5.5034 C   0  0  0  0  0  0  0  0  0  0  0  0
   15.7900   -5.8180   -5.4098 C   0  0  0  0  0  0  0  0  0  0  0  0
   16.6092   -6.8296   -5.3325 C   0  0  0  0  0  0  0  0  0  0  0  0
   14.6904   -5.8217   -6.1312 C   0  0  0  0  0  0  0  0  0  0  0  0
   14.1695   -3.3336   -5.3436 C   0  0  0  0  0  0  0  0  0  0  0  0
   15.4246   -3.9515   -4.8024 C   0  0  0  0  0  0  0  0  0  0  0  0
   13.7944   -1.9343   -4.9545 N   0  0  0  0  0  0  0  0  0  0  0  0
   14.6743   -1.1531   -4.0243 C   0  0  0  0  0  0  0  0  0  0  0  0
   15.4354   -2.4427   -4.1110 C   0  0  0  0  0  0  0  0  0  0  0  0
   15.9294   -1.7710   -3.4831 C   0  0  0  0  0  0  0  0  0  0  0  0
   16.3046   -3.1703   -3.8721 C   0  0  0  0  0  0  0  0  0  0  0  0
   16.9695   -2.1639   -2.9805 C   0  0  0  0  0  0  0  0  0  0  0  0
  1  2  2  0
  2  3  1  0
  3  4  2  0
  4  5  1  0
  5  6  2  0
  5  7  1  0
  7  8  1  0
  8  9  1  0
  9 10  1  0
 10 11  1  0
 11 12  2  0
 12 13  1  0
 10 14  1  0
 14 15  1  0
 15 16  2  0
 15 17  1  0
 17 18  1  0
 18 19  2  0
 18 20  1  0
 20 21  1  0
 21 22  1  0
  6  1  1  0
 21  1  1  0
  9 13  2  0
 16 11  1  0
 19 14  1  0
 21 16  1  0
M  END
>  <docking_score>  (1) 
-7.3529999999999998

$$$$

     RDKit          3D

 22 27  0  0  0  0  0  0  0  0999 V2000
   18.2700   -5.7299   -3.7353 C   0  0  0  0  0  0  0  0  0  0  0  0
   19.0791   -6.9922   -3.7792 C   0  0  0  0  0  0  0  0  0  0  0  0
   18.6106   -8.1550   -4.6028 C   0  0  0  0  0  0  0  0  0  0  0  0
   17.3330   -8.0555   -5.3825 C   0  0  0  0  0  0  0  0  0  0  0  0
   16.5239   -6.7932   -5.3385 C   0  0  0  0  0  0  0  0  0  0  0  0
   16.9924   -5.6304   -4.5149 C   0  0  0  0  0  0  0  0  0  0  0  0
   15.1054   -6.2372   -6.0045 C   0  0  0  0  0  0  0  0  0  0  0  0
   14.2963   -4.9750   -5.9605 C   0  0  0  0  0  0  0  0  0  0  0  0
   14.2342   -3.5929   -5.3809 C   0  0  0  0  0  0  0  0  0  0  0  0
   14.9430   -2.6189   -4.4870 C   0  0  0  0  0  0  0  0  0  0  0  0
   16.1517   -2.4251   -3.6202 C   0  0  0  0  0  0  0  0  0  0  0  0
   15.6828   -2.8032   -4.0923 C   0  0  0  0  0  0  0  0  0  0  0  0
   14.8073   -3.3383   -4.8970 C   0  0  0  0  0  0  0  0  0  0  0  0
   15.5826   -1.5836   -3.6101 C   0  0  0  0  0  0  0  0  0  0  0  0
   17.8673   -1.9226   -2.2881 C   0  0  0  0  0  0  0  0  0  0  0  0
   17.3988   -3.0854   -3.1117 C   0  0  0  0  0  0  0  0  0  0  0  0
   19.1449   -2.0221   -1.5084 N   0  0  0  0  0  0  0  0  0  0  0  0
   19.9540   -3.2844   -1.5523 C   0  0  0  0  0  0  0  0  0  0  0  0
   18.8130   -3.6528   -2.4537 C   0  0  0  0  0  0  0  0  0  0  0  0
   19.4855   -4.4473   -2.3760 C   0  0  0  0  0  0  0  0  0  0  0  0
   18.2079   -4.3478   -3.1556 C   0  0  0  0  0  0  0  0  0  0  0  0
   19.2090   -5.4549   -3.0061 C   0  0  0  0  0  0  0  0  0  0  0  0
  1  2  2  0
  2  3  1  0
  3  4  2  0
  4  5  1  0
  5  6  2  0
  5  7  1  0
  7  8  1  0
  8  9  1  0
  9 10  1  0
 10 11  1  0
 11 12  2  0
 12 13  1  0
 10 14  1  0
 14 15  1  0
 15 16  2  0
 15 17  1  0
 17 18  1  0
 18 19  2  0
 18 20  1  0
 20 21  1  0
 21 22  1  0
  6  1  1  0
 21  1  1  0
  9 13  2  0
 16 11  1  0
 19 14  1  0
 21 16  1  0
M  END
>  <docking_score>  (2) 
-7.3079999999999998

$$$$

     RDKit          3D

 22 27  0  0  0  0  0  0  0  0999 V2000
   18.3693   -4.4385   -3.0802 C   0  0  0  0  0  0  0  0  0  0  0  0
   19.4529   -3.9611   -2.1596 C   0  0  0  0  0  0  0  0  0  0  0  0
   19.4031   -2.5701   -1.6004 C   0  0  0  0  0  0  0  0  0  0  0  0
   18.2697   -1.6566   -1.9619 C   0  0  0  0  0  0  0  0  0  0  0  0
   17.1860   -2.1340   -2.8826 C   0  0  0  0  0  0  0  0  0  0  0  0
   17.2358   -3.5250   -3.4417 C   0  0  0  0  0  0  0  0  0  0  0  0
   15.7915   -1.5120   -3.5409 C   0  0  0  0  0  0  0  0  0  0  0  0
   14.7078   -1.9894   -4.4616 C   0  0  0  0  0  0  0  0  0  0  0  0
   14.2326   -3.1578   -5.2735 C   0  0  0  0  0  0  0  0  0  0  0  0
   14.5475   -4.5707   -5.6665 C   0  0  0  0  0  0  0  0  0  0  0  0
   15.5321   -5.6886   -5.4906 C   0  0  0  0  0  0  0  0  0  0  0  0
   15.2425   -4.9882   -5.3842 C   0  0  0  0  0  0  0  0  0  0  0  0
   14.6498   -3.8310   -5.2839 C   0  0  0  0  0  0  0  0  0  0  0  0
   14.7840   -5.9835   -6.1114 C   0  0  0  0  0  0  0  0  0  0  0  0
   16.8601   -7.4753   -5.3720 C   0  0  0  0  0  0  0  0  0  0  0  0
   16.8103   -6.0844   -4.8129 C   0  0  0  0  0  0  0  0  0  0  0  0
   17.9936   -8.3888   -5.0106 N   0  0  0  0  0  0  0  0  0  0  0  0
   19.0773   -7.9114   -4.0899 C   0  0  0  0  0  0  0  0  0  0  0  0
   18.2045   -6.6929   -4.1490 C   0  0  0  0  0  0  0  0  0  0  0  0
   19.0275   -6.5204   -3.5307 C   0  0  0  0  0  0  0  0  0  0  0  0
   17.8941   -5.6069   -3.8922 C   0  0  0  0  0  0  0  0  0  0  0  0
   19.0961   -5.4165   -3.0154 C   0  0  0  0  0  0  0  0  0  0  0  0
  1  2  2  0
  2  3  1  0
  3  4  2  0
  4  5  1  0
  5  6  2  0
  5  7  1  0
  7  8  1  0
  8  9  1  0
  9 10  1  0
 10 11  1  0
 11 12  2  0
 12 13  1  0
 10 14  1  0
 14 15  1  0
 15 16  2  0
 15 17  1  0
 17 18  1  0
 18 19  2  0
 18 20  1  0
 20 21  1  0
 21 22  1  0
  6  1  1  0
 21  1  1  0
  9 13  2  0
 16 11  1  0
 19 14  1  0
 21 16  1  0
M  END
>  <docking_score>  (3) 
-7.2450000000000001

$$$$
