
     RDKit          3D

 11 11  0  0  0  0  0  0  0  0999 V2000
   16.2089   -4.8208   -1.6544 O   0  0  0  0  0  0  0  0  0  0  0  0
   16.7799   -3.6071   -1.9626 C   0  0  0  0  0  0  0  0  0  0  0  0
   16.2669   -2.9510   -3.1821 C   0  0  1  0  0  0  0  0  0  0  0  0
   17.1449   -1.9801   -3.7730 N   0  0  0  0  0  0  0  0  0  0  0  0
   16.5532   -1.5773   -5.0390 C   0  0  0  0  0  0  0  0  0  0  0  0
   15.0561   -1.7728   -5.0482 C   0  0  2  0  0  0  0  0  0  0  0  0
   14.5627   -1.1978   -3.8563 O   0  0  0  0  0  0  0  0  0  0  0  0
   14.6795   -3.2501   -4.9703 C   0  0  1  0  0  0  0  0  0  0  0  0
   14.3965   -3.7963   -6.1916 O   0  0  0  0  0  0  0  0  0  0  0  0
   15.8710   -3.9305   -4.2835 C   0  0  1  0  0  0  0  0  0  0  0  0
   16.9121   -3.9746   -5.2282 O   0  0  0  0  0  0  0  0  0  0  0  0
  1  2  1  0
  3  2  1  1
  3  4  1  0
  4  5  1  0
  5  6  1  0
  6  7  1  1
  6  8  1  0
  8  9  1  6
  8 10  1  0
 10 11  1  6
 10  3  1  0
M  END
>  <docking_score>  (1) 
-3.4820000000000002

$$$$

     RDKit          3D

 11 11  0  0  0  0  0  0  0  0999 V2000
   13.3352   -0.0788   -4.2912 O   0  0  0  0  0  0  0  0  0  0  0  0
   14.2041    0.0634   -5.3491 C   0  0  0  0  0  0  0  0  0  0  0  0
   14.9342   -1.1578   -5.7447 C   0  0  1  0  0  0  0  0  0  0  0  0
   16.3659   -1.0446   -5.7454 N   0  0  0  0  0  0  0  0  0  0  0  0
   16.9037   -2.3741   -5.9865 C   0  0  0  0  0  0  0  0  0  0  0  0
   15.9258   -3.2503   -6.7320 C   0  0  2  0  0  0  0  0  0  0  0  0
   15.4612   -2.4974   -7.8328 O   0  0  0  0  0  0  0  0  0  0  0  0
   14.6850   -3.5500   -5.8947 C   0  0  1  0  0  0  0  0  0  0  0  0
   14.7415   -4.7642   -5.2682 O   0  0  0  0  0  0  0  0  0  0  0  0
   14.5789   -2.3820   -4.9053 C   0  0  1  0  0  0  0  0  0  0  0  0
   15.5926   -2.5684   -3.9483 O   0  0  0  0  0  0  0  0  0  0  0  0
  1  2  1  0
  3  2  1  1
  3  4  1  0
  4  5  1  0
  5  6  1  0
  6  7  1  6
  6  8  1  0
  8  9  1  1
  8 10  1  0
 10 11  1  1
 10  3  1  0
M  END
>  <docking_score>  (2) 
-3.452

$$$$

     RDKit          3D

 11 11  0  0  0  0  0  0  0  0999 V2000
   14.3654   -7.3453   -4.2551 O   0  0  0  0  0  0  0  0  0  0  0  0
   15.5198   -6.8448   -4.8127 C   0  0  0  0  0  0  0  0  0  0  0  0
   16.1467   -5.7232   -4.0850 C   0  0  1  0  0  0  0  0  0  0  0  0
   17.5468   -5.8782   -3.8053 N   0  0  0  0  0  0  0  0  0  0  0  0
   18.0178   -4.6197   -3.2493 C   0  0  0  0  0  0  0  0  0  0  0  0
   16.9025   -3.8417   -2.5932 C   0  0  2  0  0  0  0  0  0  0  0  0
   16.2199   -4.7430   -1.7470 O   0  0  0  0  0  0  0  0  0  0  0  0
   15.8638   -3.3774   -3.6111 C   0  0  1  0  0  0  0  0  0  0  0  0
   16.0464   -2.0825   -4.0108 O   0  0  0  0  0  0  0  0  0  0  0  0
   15.9713   -4.3727   -4.7740 C   0  0  1  0  0  0  0  0  0  0  0  0
   17.1625   -4.0696   -5.4578 O   0  0  0  0  0  0  0  0  0  0  0  0
  1  2  1  0
  3  2  1  6
  3  4  1  0
  4  5  1  0
  5  6  1  0
  6  7  1  1
  6  8  1  0
  8  9  1  6
  8 10  1  0
 10 11  1  6
 10  3  1  0
M  END
>  <docking_score>  (3) 
-3.4300000000000002

$$$$
