
     RDKit          3D

 30 31  0  0  0  0  0  0  0  0999 V2000
    6.7234   10.6552    1.9209 C   0  0  0  0  0  0  0  0  0  0  0  0
    6.5812   12.1343    2.1479 C   0  0  0  0  0  0  0  0  0  0  0  0
    6.4868   12.9066    0.8691 C   0  0  0  0  0  0  0  0  0  0  0  0
    5.4554   12.4445    3.1133 C   0  0  0  0  0  0  0  0  0  0  0  0
    6.0278   13.4058    4.1573 C   0  0  0  0  0  0  0  0  0  0  0  0
    6.0379   12.6958    5.5093 C   0  0  0  0  0  0  0  0  0  0  0  0
    5.0525   11.5568    5.4176 C   0  0  1  0  0  0  0  0  0  0  0  0
    5.6702   10.2291    5.7265 C   0  0  0  0  0  0  0  0  0  0  0  0
    3.9226   11.8160    6.3895 C   0  0  0  0  0  3  0  0  0  0  0  0
    3.1648   10.5172    6.6015 C   0  0  0  0  0  0  0  0  0  0  0  0
    2.4854   10.5496    7.9387 C   0  0  0  0  0  0  0  0  0  0  0  0
    3.4680   10.3757    9.0827 C   0  0  2  0  0  0  0  0  0  0  0  0
    3.8177    8.9584    9.3172 C   0  0  0  0  0  0  0  0  0  0  0  0
    3.0731   11.1550   10.2871 C   0  0  0  0  0  3  0  0  0  0  0  0
    2.5687   12.5088    9.8534 C   0  0  0  0  0  0  0  0  0  0  0  0
    3.4889   13.6315   10.2372 C   0  0  2  0  0  0  0  0  0  0  0  0
    5.2149   13.2273    9.9589 S   0  0  0  0  0  0  0  0  0  0  0  0
    3.1916   13.9930   11.6778 C   0  0  0  0  0  0  0  0  0  0  0  0
    4.4438   13.8909   12.5382 C   0  0  0  0  0  0  0  0  0  0  0  0
    3.9874   13.8745   13.9780 C   0  0  2  0  0  0  0  0  0  0  0  0
    5.0854   14.1973   14.9473 C   0  0  0  0  0  0  0  0  0  0  0  0
    3.2709   12.7450   14.3010 O   0  0  0  0  0  0  0  0  0  0  0  0
    4.0009   11.8142   15.0257 C   0  0  0  0  0  0  0  0  0  0  0  0
    4.3537   10.6614   14.1213 C   0  0  0  0  0  3  0  0  0  0  0  0
    3.2741    9.6088   14.0863 C   0  0  0  0  0  0  0  0  0  0  0  0
    3.3343    8.8051   12.8853 N   0  0  0  0  0  0  0  0  0  0  0  0
    3.9143    9.4881   11.7716 C   0  0  2  0  0  0  0  0  0  0  0  0
    4.2505    8.6064   10.6865 C   0  0  2  0  0  0  0  0  0  0  0  0
    5.3181    9.2841   11.3933 C   0  0  0  0  0  0  0  0  0  0  0  0
    6.4855    9.5646   11.6165 O   0  0  0  0  0  0  0  0  0  0  0  0
  1  2  1  0
  2  3  1  0
  2  4  1  0
  4  5  1  0
  5  6  1  0
  6  7  1  0
  7  8  1  1
  7  9  1  0
  9 10  1  0
 10 11  1  0
 12 11  1  6
 12 13  1  0
 12 14  1  0
 14 15  1  0
 15 16  1  0
 16 17  1  1
 16 18  1  0
 18 19  1  0
 19 20  1  0
 20 21  1  1
 20 22  1  0
 22 23  1  0
 23 24  1  0
 24 25  1  0
 25 26  1  0
 27 26  1  1
 27 28  1  0
 28 29  1  0
 29 30  2  0
 28 13  1  6
 29 27  1  0
M  RAD  3   9   2  14   2  24   2
M  END
>  <docking_score>  (1) 
-3.7189999999999999

$$$$

     RDKit          3D

 30 31  0  0  0  0  0  0  0  0999 V2000
    5.4782   16.0749    6.4669 C   0  0  0  0  0  0  0  0  0  0  0  0
    6.7263   15.7861    7.2533 C   0  0  0  0  0  0  0  0  0  0  0  0
    6.6733   14.4633    7.9519 C   0  0  0  0  0  0  0  0  0  0  0  0
    7.9712   15.9615    6.4075 C   0  0  0  0  0  0  0  0  0  0  0  0
    7.5006   16.0749    4.9560 C   0  0  0  0  0  0  0  0  0  0  0  0
    8.3418   15.1279    4.1031 C   0  0  0  0  0  0  0  0  0  0  0  0
    8.0186   15.4280    2.6601 C   0  0  1  0  0  0  0  0  0  0  0  0
    9.0567   14.9117    1.7137 C   0  0  0  0  0  0  0  0  0  0  0  0
    6.6843   14.7998    2.3231 C   0  0  0  0  0  3  0  0  0  0  0  0
    6.8758   13.8764    1.1329 C   0  0  0  0  0  0  0  0  0  0  0  0
    6.6723   12.4549    1.5676 C   0  0  0  0  0  0  0  0  0  0  0  0
    5.5324   12.3191    2.5608 C   0  0  2  0  0  0  0  0  0  0  0  0
    5.3735   13.5211    3.4069 C   0  0  0  0  0  0  0  0  0  0  0  0
    5.5656   11.0177    3.2811 C   0  0  0  0  0  3  0  0  0  0  0  0
    5.9219    9.9243    2.3050 C   0  0  0  0  0  0  0  0  0  0  0  0
    4.7802    8.9908    2.0228 C   0  0  2  0  0  0  0  0  0  0  0  0
    3.2232    9.8578    1.8122 S   0  0  0  0  0  0  0  0  0  0  0  0
    4.7404    7.9679    3.1392 C   0  0  0  0  0  0  0  0  0  0  0  0
    3.3810    7.9577    3.8253 C   0  0  0  0  0  0  0  0  0  0  0  0
    3.5554    7.2261    5.1352 C   0  0  2  0  0  0  0  0  0  0  0  0
    2.2579    6.7646    5.7290 C   0  0  0  0  0  0  0  0  0  0  0  0
    4.3680    7.8967    6.0204 O   0  0  0  0  0  0  0  0  0  0  0  0
    3.6714    8.5456    7.0295 C   0  0  0  0  0  0  0  0  0  0  0  0
    3.6817   10.0271    6.7530 C   0  0  0  0  0  3  0  0  0  0  0  0
    4.9013   10.7081    7.3218 C   0  0  0  0  0  0  0  0  0  0  0  0
    5.1958   11.9530    6.6469 N   0  0  0  0  0  0  0  0  0  0  0  0
    4.7349   11.9904    5.2944 C   0  0  2  0  0  0  0  0  0  0  0  0
    4.7524   13.3140    4.7326 C   0  0  2  0  0  0  0  0  0  0  0  0
    3.4774   12.6552    4.9309 C   0  0  0  0  0  0  0  0  0  0  0  0
    2.2594   12.5787    4.8854 O   0  0  0  0  0  0  0  0  0  0  0  0
  1  2  1  0
  2  3  1  0
  2  4  1  0
  4  5  1  0
  5  6  1  0
  6  7  1  0
  7  8  1  6
  7  9  1  0
  9 10  1  0
 10 11  1  0
 12 11  1  1
 12 13  1  0
 12 14  1  0
 14 15  1  0
 15 16  1  0
 16 17  1  1
 16 18  1  0
 18 19  1  0
 19 20  1  0
 20 21  1  1
 20 22  1  0
 22 23  1  0
 23 24  1  0
 24 25  1  0
 25 26  1  0
 27 26  1  1
 27 28  1  0
 28 29  1  0
 29 30  2  0
 28 13  1  6
 29 27  1  0
M  RAD  3   9   2  14   2  24   2
M  END
>  <docking_score>  (2) 
-1.9359999999999999

$$$$
