
     RDKit          3D

 20 21  0  0  0  0  0  0  0  0999 V2000
   15.4622   -2.3789   -7.0748 C   0  0  0  0  0  0  0  0  0  0  0  0
   15.7688   -1.0440   -6.4752 C   0  0  1  0  0  0  0  0  0  0  0  0
   14.6188   -0.4752   -5.7089 C   0  0  0  0  0  0  0  0  0  0  0  0
   17.0052   -1.1114   -5.5988 C   0  0  0  0  0  0  0  0  0  0  0  0
   16.7253   -2.0981   -4.5025 C   0  0  1  0  0  0  0  0  0  0  0  0
   17.6472   -1.9786   -3.3295 C   0  0  0  0  0  0  0  0  0  0  0  0
   18.3319   -3.3423   -3.1650 C   0  0  1  0  0  0  0  0  0  0  0  0
   19.1948   -3.2884   -1.9504 C   0  0  0  0  0  0  0  0  0  0  0  0
   17.2430   -4.3664   -3.0924 C   0  0  0  0  0  0  0  0  0  0  0  0
   17.7290   -5.7339   -2.7337 C   0  0  0  0  0  0  0  0  0  0  0  0
   18.2395   -6.4849   -3.9403 C   0  0  0  0  0  0  0  0  0  0  0  0
   17.3522   -6.3305   -5.1427 C   0  0  1  0  0  0  0  0  0  0  0  0
   17.5978   -7.5516   -6.0324 C   0  0  0  0  0  0  0  0  0  0  0  0
   15.6288   -6.2907   -4.6284 S   0  0  0  0  0  0  0  0  0  0  0  0
   14.5070   -5.8046   -5.9278 C   0  0  0  0  0  0  0  0  0  0  0  0
   14.9193   -4.5746   -6.6424 C   0  0  0  0  0  0  0  0  0  0  0  0
   15.2128   -4.6978   -8.0332 N   0  0  0  0  0  1  0  0  0  0  0  0
   15.0286   -3.3829   -6.0678 C   0  0  0  0  0  0  0  0  0  0  0  0
   14.7346   -3.1826   -4.6068 C   0  0  0  0  0  0  0  0  0  0  0  0
   15.3796   -2.0521   -4.1494 O   0  0  0  0  0  0  0  0  0  0  0  0
  1  2  1  0
  2  3  1  1
  2  4  1  0
  5  4  1  6
  5  6  1  0
  6  7  1  0
  7  8  1  1
  7  9  1  0
  9 10  1  0
 10 11  1  0
 11 12  1  0
 12 13  1  6
 12 14  1  0
 14 15  1  0
 15 16  1  0
 16 17  1  0
 16 18  2  3
 18 19  1  0
 19 20  1  0
 18  1  1  0
 20  5  1  0
M  CHG  1  17   1
M  RAD  1  17   2
M  END
>  <docking_score>  (1) 
-6.3170000000000002

$$$$

     RDKit          3D

 20 21  0  0  0  0  0  0  0  0999 V2000
   18.2372   -5.3965   -3.3082 C   0  0  0  0  0  0  0  0  0  0  0  0
   17.8901   -4.6189   -2.0792 C   0  0  1  0  0  0  0  0  0  0  0  0
   18.9580   -3.6504   -1.6856 C   0  0  0  0  0  0  0  0  0  0  0  0
   16.5630   -3.9028   -2.2443 C   0  0  0  0  0  0  0  0  0  0  0  0
   16.7014   -2.9627   -3.4066 C   0  0  1  0  0  0  0  0  0  0  0  0
   15.6573   -1.8913   -3.4474 C   0  0  0  0  0  0  0  0  0  0  0  0
   14.9340   -2.0303   -4.7939 C   0  0  1  0  0  0  0  0  0  0  0  0
   13.9425   -0.9227   -4.9084 C   0  0  0  0  0  0  0  0  0  0  0  0
   15.9893   -2.0138   -5.8549 C   0  0  0  0  0  0  0  0  0  0  0  0
   15.4418   -1.9419   -7.2441 C   0  0  0  0  0  0  0  0  0  0  0  0
   15.0550   -3.3043   -7.7684 C   0  0  0  0  0  0  0  0  0  0  0  0
   16.0730   -4.3626   -7.4516 C   0  0  1  0  0  0  0  0  0  0  0  0
   15.9058   -5.4643   -8.5009 C   0  0  0  0  0  0  0  0  0  0  0  0
   17.7291   -3.6682   -7.5590 S   0  0  0  0  0  0  0  0  0  0  0  0
   18.9969   -4.7413   -6.9078 C   0  0  0  0  0  0  0  0  0  0  0  0
   18.6889   -5.2807   -5.5633 C   0  0  0  0  0  0  0  0  0  0  0  0
   18.5495   -6.6958   -5.4464 N   0  0  0  0  0  1  0  0  0  0  0  0
   18.5380   -4.5305   -4.4785 C   0  0  0  0  0  0  0  0  0  0  0  0
   18.6714   -3.0336   -4.5308 C   0  0  0  0  0  0  0  0  0  0  0  0
   18.0002   -2.4657   -3.4678 O   0  0  0  0  0  0  0  0  0  0  0  0
  1  2  1  0
  2  3  1  6
  2  4  1  0
  5  4  1  1
  5  6  1  0
  6  7  1  0
  7  8  1  6
  7  9  1  0
  9 10  1  0
 10 11  1  0
 11 12  1  0
 12 13  1  6
 12 14  1  0
 14 15  1  0
 15 16  1  0
 16 17  1  0
 16 18  2  3
 18 19  1  0
 19 20  1  0
 18  1  1  0
 20  5  1  0
M  CHG  1  17   1
M  RAD  1  17   2
M  END
>  <docking_score>  (2) 
-5.8049999999999997

$$$$

     RDKit          3D

 20 21  0  0  0  0  0  0  0  0999 V2000
   14.0517   -3.7887   -5.3651 C   0  0  0  0  0  0  0  0  0  0  0  0
   13.7690   -5.1800   -5.8341 C   0  0  1  0  0  0  0  0  0  0  0  0
   13.9221   -5.3353   -7.3125 C   0  0  0  0  0  0  0  0  0  0  0  0
   14.6374   -6.1877   -5.1049 C   0  0  0  0  0  0  0  0  0  0  0  0
   16.0687   -5.8433   -5.3992 C   0  0  1  0  0  0  0  0  0  0  0  0
   17.0297   -6.9561   -5.1197 C   0  0  0  0  0  0  0  0  0  0  0  0
   18.0426   -6.4192   -4.0992 C   0  0  1  0  0  0  0  0  0  0  0  0
   19.0697   -7.4733   -3.8612 C   0  0  0  0  0  0  0  0  0  0  0  0
   18.5950   -5.1490   -4.6661 C   0  0  0  0  0  0  0  0  0  0  0  0
   19.7442   -4.5947   -3.8871 C   0  0  0  0  0  0  0  0  0  0  0  0
   19.2812   -3.7692   -2.7102 C   0  0  0  0  0  0  0  0  0  0  0  0
   18.1377   -2.8565   -3.0509 C   0  0  1  0  0  0  0  0  0  0  0  0
   18.1791   -1.7028   -2.0458 C   0  0  0  0  0  0  0  0  0  0  0  0
   18.3440   -2.2161   -4.7192 S   0  0  0  0  0  0  0  0  0  0  0  0
   16.9015   -1.3718   -5.3434 C   0  0  0  0  0  0  0  0  0  0  0  0
   15.6440   -2.1361   -5.1754 C   0  0  0  0  0  0  0  0  0  0  0  0
   14.6386   -1.5593   -4.3436 N   0  0  0  0  0  1  0  0  0  0  0  0
   15.4059   -3.3098   -5.7481 C   0  0  0  0  0  0  0  0  0  0  0  0
   16.4215   -3.9738   -6.6362 C   0  0  0  0  0  0  0  0  0  0  0  0
   16.1822   -5.3314   -6.6887 O   0  0  0  0  0  0  0  0  0  0  0  0
  1  2  1  0
  2  3  1  6
  2  4  1  0
  5  4  1  6
  5  6  1  0
  6  7  1  0
  7  8  1  6
  7  9  1  0
  9 10  1  0
 10 11  1  0
 11 12  1  0
 12 13  1  1
 12 14  1  0
 14 15  1  0
 15 16  1  0
 16 17  1  0
 16 18  2  3
 18 19  1  0
 19 20  1  0
 18  1  1  0
 20  5  1  0
M  CHG  1  17   1
M  RAD  1  17   2
M  END
>  <docking_score>  (3) 
-5.734

$$$$
