
     RDKit          3D

 25 25  0  0  0  0  0  0  0  0999 V2000
   20.6791   -8.3231   -4.1677 C   0  0  0  0  0  0  0  0  0  0  0  0
   19.2645   -7.8903   -3.9287 C   0  0  0  0  0  3  0  0  0  0  0  0
   18.6069   -7.6562   -5.2680 C   0  0  0  0  0  0  0  0  0  0  0  0
   17.1194   -7.7688   -5.2084 C   0  0  2  0  0  0  0  0  0  0  0  0
   16.7071   -9.0897   -5.3690 O   0  0  0  0  0  0  0  0  0  0  0  0
   16.3936   -6.8107   -6.1051 C   0  0  2  0  0  0  0  0  0  0  0  0
   17.3387   -6.0146   -6.7678 O   0  0  0  0  0  0  0  0  0  0  0  0
   15.5351   -5.9179   -5.2591 C   0  0  1  0  0  0  0  0  0  0  0  0
   14.2516   -6.4256   -5.1212 O   0  0  0  0  0  0  0  0  0  0  0  0
   16.1678   -5.5819   -3.9251 C   0  0  0  0  0  3  0  0  0  0  0  0
   16.9122   -4.2789   -4.0850 C   0  0  2  0  0  0  0  0  0  0  0  0
   18.0450   -4.1238   -3.1327 C   0  0  0  0  0  3  0  0  0  0  0  0
   19.2515   -3.4491   -3.6915 C   0  0  2  0  0  0  0  0  0  0  0  0
   20.3650   -3.5550   -2.6701 C   0  0  1  0  0  0  0  0  0  0  0  0
   21.3709   -2.6334   -2.8667 O   0  0  0  0  0  0  0  0  0  0  0  0
   19.7796   -3.3506   -1.2778 C   0  0  0  0  0  0  0  0  0  0  0  0
   20.6309   -2.6175   -0.4707 O   0  0  0  0  0  0  0  0  0  0  0  0
   20.9284   -4.9763   -2.7403 C   0  0  0  0  0  2  0  0  0  0  0  0
   16.0068   -3.0848   -4.0416 C   0  0  0  0  0  0  0  0  0  0  0  0
   16.6921   -1.9234   -3.7970 O   0  0  0  0  0  0  0  0  0  0  0  0
   17.7445   -1.6970   -4.6781 C   0  0  2  0  0  0  0  0  0  0  0  0
   17.5758   -2.4025   -5.9918 C   0  0  0  0  0  2  0  0  0  0  0  0
   19.0597   -2.0023   -4.0153 C   0  0  1  0  0  0  0  0  0  0  0  0
   19.1530   -1.1842   -2.8763 O   0  0  0  0  0  0  0  0  0  0  0  0
   19.8538   -0.1368   -3.2262 O   0  0  0  0  0  0  0  0  0  0  0  0
  1  2  1  0
  2  3  1  0
  3  4  1  0
  4  5  1  6
  4  6  1  0
  6  7  1  1
  6  8  1  0
  8  9  1  1
  8 10  1  0
 11 10  1  1
 11 12  1  0
 13 12  1  1
 13 14  1  0
 14 15  1  0
 14 16  1  0
 16 17  1  0
 14 18  1  1
 11 19  1  0
 19 20  1  0
 20 21  1  0
 21 22  1  6
 21 23  1  0
 23 24  1  1
 24 25  1  0
 23 13  1  0
M  RAD  5   2   2  10   2  12   2  18   3  22   3
M  END
>  <docking_score>  (1) 
-4.0700000000000003

$$$$

     RDKit          3D

 25 25  0  0  0  0  0  0  0  0999 V2000
   15.8464   -1.6304   -3.0247 C   0  0  0  0  0  0  0  0  0  0  0  0
   16.7169   -2.2064   -1.9494 C   0  0  0  0  0  3  0  0  0  0  0  0
   18.1071   -1.6383   -2.1089 C   0  0  0  0  0  0  0  0  0  0  0  0
   19.1305   -2.6876   -2.3928 C   0  0  2  0  0  0  0  0  0  0  0  0
   19.9001   -2.9595   -1.2639 O   0  0  0  0  0  0  0  0  0  0  0  0
   19.9531   -2.4284   -3.6196 C   0  0  2  0  0  0  0  0  0  0  0  0
   20.3505   -1.0838   -3.6161 O   0  0  0  0  0  0  0  0  0  0  0  0
   19.0983   -2.6645   -4.8294 C   0  0  1  0  0  0  0  0  0  0  0  0
   18.9686   -1.5148   -5.5946 O   0  0  0  0  0  0  0  0  0  0  0  0
   19.5517   -3.8539   -5.6495 C   0  0  0  0  0  3  0  0  0  0  0  0
   18.4810   -4.9130   -5.5533 C   0  0  2  0  0  0  0  0  0  0  0  0
   17.1000   -4.3703   -5.6658 C   0  0  0  0  0  3  0  0  0  0  0  0
   16.1422   -5.2323   -6.4157 C   0  0  2  0  0  0  0  0  0  0  0  0
   14.8592   -4.4510   -6.6103 C   0  0  1  0  0  0  0  0  0  0  0  0
   13.8391   -5.2077   -7.1456 O   0  0  0  0  0  0  0  0  0  0  0  0
   14.4056   -3.9021   -5.2627 C   0  0  0  0  0  0  0  0  0  0  0  0
   13.7669   -2.6828   -5.3990 O   0  0  0  0  0  0  0  0  0  0  0  0
   15.1709   -3.2623   -7.5224 C   0  0  0  0  0  2  0  0  0  0  0  0
   18.6228   -5.7717   -4.3327 C   0  0  0  0  0  0  0  0  0  0  0  0
   17.4698   -6.4533   -4.0418 O   0  0  0  0  0  0  0  0  0  0  0  0
   16.9797   -7.2055   -5.1044 C   0  0  2  0  0  0  0  0  0  0  0  0
   18.0381   -7.5778   -6.1011 C   0  0  0  0  0  2  0  0  0  0  0  0
   15.7995   -6.5181   -5.7344 C   0  0  1  0  0  0  0  0  0  0  0  0
   14.8308   -6.3478   -4.7305 O   0  0  0  0  0  0  0  0  0  0  0  0
   14.4927   -7.5466   -4.3316 O   0  0  0  0  0  0  0  0  0  0  0  0
  1  2  1  0
  2  3  1  0
  3  4  1  0
  4  5  1  1
  4  6  1  0
  6  7  1  1
  6  8  1  0
  8  9  1  6
  8 10  1  0
 11 10  1  1
 11 12  1  0
 13 12  1  1
 13 14  1  0
 14 15  1  0
 14 16  1  0
 16 17  1  0
 14 18  1  6
 11 19  1  0
 19 20  1  0
 20 21  1  0
 21 22  1  6
 21 23  1  0
 23 24  1  1
 24 25  1  0
 23 13  1  0
M  RAD  5   2   2  10   2  12   2  18   3  22   3
M  END
>  <docking_score>  (2) 
-4.0490000000000004

$$$$

     RDKit          3D

 25 25  0  0  0  0  0  0  0  0999 V2000
   18.4906   -5.7702   -8.3407 C   0  0  0  0  0  0  0  0  0  0  0  0
   17.4324   -6.8071   -8.1152 C   0  0  0  0  0  3  0  0  0  0  0  0
   18.1055   -8.0833   -7.6695 C   0  0  0  0  0  0  0  0  0  0  0  0
   19.0598   -7.8692   -6.5415 C   0  0  2  0  0  0  0  0  0  0  0  0
   20.3188   -8.3844   -6.8417 O   0  0  0  0  0  0  0  0  0  0  0  0
   18.5431   -8.3141   -5.2058 C   0  0  2  0  0  0  0  0  0  0  0  0
   17.1439   -8.3827   -5.2675 O   0  0  0  0  0  0  0  0  0  0  0  0
   18.9201   -7.2876   -4.1791 C   0  0  1  0  0  0  0  0  0  0  0  0
   20.0174   -7.6914   -3.4329 O   0  0  0  0  0  0  0  0  0  0  0  0
   19.1011   -5.9039   -4.7667 C   0  0  0  0  0  3  0  0  0  0  0  0
   18.1277   -4.9805   -4.0758 C   0  0  2  0  0  0  0  0  0  0  0  0
   17.3992   -4.0814   -5.0111 C   0  0  0  0  0  3  0  0  0  0  0  0
   15.9728   -3.8267   -4.6596 C   0  0  2  0  0  0  0  0  0  0  0  0
   15.3334   -3.0714   -5.8063 C   0  0  1  0  0  0  0  0  0  0  0  0
   15.9790   -1.8909   -6.1053 O   0  0  0  0  0  0  0  0  0  0  0  0
   15.3373   -3.9585   -7.0457 C   0  0  0  0  0  0  0  0  0  0  0  0
   15.8015   -3.2780   -8.1569 O   0  0  0  0  0  0  0  0  0  0  0  0
   13.8760   -2.7964   -5.4284 C   0  0  0  0  0  2  0  0  0  0  0  0
   18.7595   -4.1996   -2.9629 C   0  0  0  0  0  0  0  0  0  0  0  0
   18.0094   -3.1104   -2.6032 O   0  0  0  0  0  0  0  0  0  0  0  0
   16.6902   -3.4177   -2.2863 C   0  0  2  0  0  0  0  0  0  0  0  0
   16.5045   -4.8423   -1.8523 C   0  0  0  0  0  2  0  0  0  0  0  0
   15.7741   -3.0258   -3.4130 C   0  0  1  0  0  0  0  0  0  0  0  0
   15.9465   -1.6482   -3.6313 O   0  0  0  0  0  0  0  0  0  0  0  0
   15.0747   -1.0384   -2.8706 O   0  0  0  0  0  0  0  0  0  0  0  0
  1  2  1  0
  2  3  1  0
  3  4  1  0
  4  5  1  6
  4  6  1  0
  6  7  1  6
  6  8  1  0
  8  9  1  6
  8 10  1  0
 11 10  1  6
 11 12  1  0
 13 12  1  6
 13 14  1  0
 14 15  1  0
 14 16  1  0
 16 17  1  0
 14 18  1  1
 11 19  1  0
 19 20  1  0
 20 21  1  0
 21 22  1  6
 21 23  1  0
 23 24  1  6
 24 25  1  0
 23 13  1  0
M  RAD  5   2   2  10   2  12   2  18   3  22   3
M  END
>  <docking_score>  (3) 
-3.9390000000000001

$$$$
