
     RDKit          3D

 25 26  0  0  0  0  0  0  0  0999 V2000
   13.5341   -5.1650   -5.7746 C   0  0  0  0  0  0  0  0  0  0  0  0
   13.7186   -3.7901   -5.5935 O   0  0  0  0  0  0  0  0  0  0  0  0
   14.9516   -3.1868   -5.8059 C   0  0  0  0  0  0  0  0  0  0  0  0
   16.0487   -3.9830   -6.1606 C   0  0  0  0  0  0  0  0  0  0  0  0
   17.2292   -3.3278   -6.3543 C   0  0  0  0  0  0  0  0  0  0  0  0
   17.4257   -1.9778   -6.2323 C   0  0  0  0  0  0  0  0  0  0  0  0
   16.3153   -1.2086   -5.8778 C   0  0  0  0  0  0  0  0  0  0  0  0
   15.1095   -1.8306   -5.6741 C   0  0  0  0  0  0  0  0  0  0  0  0
   14.0112   -1.0589   -5.3221 O   0  0  0  0  0  0  0  0  0  0  0  0
   13.9670   -0.3507   -4.0936 C   0  0  0  0  0  0  0  0  0  0  0  0
   18.7314   -1.3200   -6.4573 C   0  0  0  0  0  0  0  0  0  0  0  0
   18.9520   -0.2609   -5.4349 C   0  0  0  0  0  0  0  0  0  0  0  0
   19.9569   -0.5115   -4.4080 C   0  0  2  0  0  0  0  0  0  0  0  0
   21.2678   -0.3733   -4.6716 O   0  0  0  0  0  0  0  0  0  0  0  0
   19.5535   -1.0452   -3.1520 N   0  0  0  0  0  0  0  0  0  0  0  0
   20.2510   -0.3115   -2.1537 N   0  0  0  0  0  0  0  0  0  0  0  0
   20.2604   -1.2248   -1.0398 C   0  0  0  0  0  0  0  0  0  0  0  0
   20.2146   -2.4640   -1.5040 C   0  0  0  0  0  0  0  0  0  0  0  0
   20.1743   -2.3433   -2.9756 C   0  0  1  0  0  0  0  0  0  0  0  0
   19.3596   -3.3380   -3.4790 O   0  0  0  0  0  0  0  0  0  0  0  0
   20.0227   -4.3820   -4.0973 C   0  0  0  0  0  0  0  0  0  0  0  0
   19.7399   -5.6670   -3.3618 C   0  0  0  0  0  0  0  0  0  0  0  0
   18.2551   -5.9544   -3.2966 C   0  0  0  0  0  0  0  0  0  0  0  0
   17.8951   -6.7978   -4.4624 C   0  0  0  0  0  0  0  0  0  0  0  0
   16.7199   -7.0223   -4.7591 O   0  0  0  0  0  0  0  0  0  0  0  0
  1  2  1  0
  2  3  1  0
  3  4  2  0
  4  5  1  0
  5  6  2  0
  6  7  1  0
  7  8  2  0
  8  9  1  0
  9 10  1  0
  6 11  1  0
 11 12  1  0
 12 13  1  0
 13 14  1  6
 13 15  1  0
 15 16  1  0
 16 17  1  0
 17 18  2  0
 18 19  1  0
 19 20  1  6
 20 21  1  0
 21 22  1  0
 22 23  1  0
 23 24  1  0
 24 25  2  0
  8  3  1  0
 19 15  1  0
M  END
>  <docking_score>  (1) 
-4.0789999999999997

$$$$

     RDKit          3D

 25 26  0  0  0  0  0  0  0  0999 V2000
   14.4069    0.2914   -5.5335 C   0  0  0  0  0  0  0  0  0  0  0  0
   14.0017   -0.9337   -4.9932 O   0  0  0  0  0  0  0  0  0  0  0  0
   14.8360   -1.6771   -4.1681 C   0  0  0  0  0  0  0  0  0  0  0  0
   15.3619   -1.0809   -3.0142 C   0  0  0  0  0  0  0  0  0  0  0  0
   16.1733   -1.8657   -2.2486 C   0  0  0  0  0  0  0  0  0  0  0  0
   16.5097   -3.1671   -2.5119 C   0  0  0  0  0  0  0  0  0  0  0  0
   15.9715   -3.7359   -3.6682 C   0  0  0  0  0  0  0  0  0  0  0  0
   15.1505   -2.9789   -4.4650 C   0  0  0  0  0  0  0  0  0  0  0  0
   14.6200   -3.5516   -5.6122 O   0  0  0  0  0  0  0  0  0  0  0  0
   15.2999   -3.4852   -6.8555 C   0  0  0  0  0  0  0  0  0  0  0  0
   17.3947   -3.9726   -1.6422 C   0  0  0  0  0  0  0  0  0  0  0  0
   18.6047   -4.3966   -2.3984 C   0  0  0  0  0  0  0  0  0  0  0  0
   19.8335   -3.6399   -2.1870 C   0  0  2  0  0  0  0  0  0  0  0  0
   20.5103   -3.7252   -1.0287 O   0  0  0  0  0  0  0  0  0  0  0  0
   20.2462   -2.6913   -3.1643 N   0  0  0  0  0  0  0  0  0  0  0  0
   19.6300   -1.4570   -2.8206 N   0  0  0  0  0  0  0  0  0  0  0  0
   19.6026   -0.7570   -4.0794 C   0  0  0  0  0  0  0  0  0  0  0  0
   19.5558   -1.6451   -5.0602 C   0  0  0  0  0  0  0  0  0  0  0  0
   19.5529   -2.9697   -4.4066 C   0  0  1  0  0  0  0  0  0  0  0  0
   20.2867   -3.8466   -5.1805 O   0  0  0  0  0  0  0  0  0  0  0  0
   19.5379   -4.6966   -5.9734 C   0  0  0  0  0  0  0  0  0  0  0  0
   20.2126   -6.0424   -6.0497 C   0  0  0  0  0  0  0  0  0  0  0  0
   20.1449   -6.7733   -4.7257 C   0  0  0  0  0  0  0  0  0  0  0  0
   18.8042   -7.3970   -4.6092 C   0  0  0  0  0  0  0  0  0  0  0  0
   18.4181   -8.2529   -5.4079 O   0  0  0  0  0  0  0  0  0  0  0  0
  1  2  1  0
  2  3  1  0
  3  4  2  0
  4  5  1  0
  5  6  2  0
  6  7  1  0
  7  8  2  0
  8  9  1  0
  9 10  1  0
  6 11  1  0
 11 12  1  0
 12 13  1  0
 13 14  1  1
 13 15  1  0
 15 16  1  0
 16 17  1  0
 17 18  2  0
 18 19  1  0
 19 20  1  6
 20 21  1  0
 21 22  1  0
 22 23  1  0
 23 24  1  0
 24 25  2  0
  8  3  1  0
 19 15  1  0
M  END
>  <docking_score>  (2) 
-3.9569999999999999

$$$$

     RDKit          3D

 25 26  0  0  0  0  0  0  0  0999 V2000
   14.4446   -0.2008   -5.5879 C   0  0  0  0  0  0  0  0  0  0  0  0
   15.7963   -0.5603   -5.6147 O   0  0  0  0  0  0  0  0  0  0  0  0
   16.2180   -1.7677   -6.1566 C   0  0  0  0  0  0  0  0  0  0  0  0
   15.2842   -2.7961   -6.3405 C   0  0  0  0  0  0  0  0  0  0  0  0
   15.7640   -3.9549   -6.8766 C   0  0  0  0  0  0  0  0  0  0  0  0
   17.0624   -4.1906   -7.2435 C   0  0  0  0  0  0  0  0  0  0  0  0
   17.9716   -3.1485   -7.0491 C   0  0  0  0  0  0  0  0  0  0  0  0
   17.5278   -1.9666   -6.5121 C   0  0  0  0  0  0  0  0  0  0  0  0
   18.4377   -0.9362   -6.3222 O   0  0  0  0  0  0  0  0  0  0  0  0
   19.0743   -0.7318   -5.0710 C   0  0  0  0  0  0  0  0  0  0  0  0
   17.5266   -5.4697   -7.8238 C   0  0  0  0  0  0  0  0  0  0  0  0
   16.7831   -6.6061   -7.2142 C   0  0  0  0  0  0  0  0  0  0  0  0
   17.4075   -7.2983   -6.0925 C   0  0  2  0  0  0  0  0  0  0  0  0
   16.6758   -8.0295   -5.2342 O   0  0  0  0  0  0  0  0  0  0  0  0
   18.7877   -7.0830   -5.8203 N   0  0  0  0  0  0  0  0  0  0  0  0
   19.4612   -8.2921   -6.1455 N   0  0  0  0  0  0  0  0  0  0  0  0
   20.6549   -8.2139   -5.3430 C   0  0  0  0  0  0  0  0  0  0  0  0
   20.3993   -7.4837   -4.2685 C   0  0  0  0  0  0  0  0  0  0  0  0
   18.9843   -7.0759   -4.3840 C   0  0  1  0  0  0  0  0  0  0  0  0
   18.8511   -5.7946   -3.8870 O   0  0  0  0  0  0  0  0  0  0  0  0
   17.9544   -5.6609   -2.8431 C   0  0  0  0  0  0  0  0  0  0  0  0
   16.8490   -4.7177   -3.2437 C   0  0  0  0  0  0  0  0  0  0  0  0
   16.4100   -3.8514   -2.0824 C   0  0  0  0  0  0  0  0  0  0  0  0
   16.4843   -2.4328   -2.5089 C   0  0  0  0  0  0  0  0  0  0  0  0
   17.4281   -1.7091   -2.1843 O   0  0  0  0  0  0  0  0  0  0  0  0
  1  2  1  0
  2  3  1  0
  3  4  2  0
  4  5  1  0
  5  6  2  0
  6  7  1  0
  7  8  2  0
  8  9  1  0
  9 10  1  0
  6 11  1  0
 11 12  1  0
 12 13  1  0
 13 14  1  1
 13 15  1  0
 15 16  1  0
 16 17  1  0
 17 18  2  0
 18 19  1  0
 19 20  1  6
 20 21  1  0
 21 22  1  0
 22 23  1  0
 23 24  1  0
 24 25  2  0
  8  3  1  0
 19 15  1  0
M  END
>  <docking_score>  (3) 
-3.661

$$$$
