
     RDKit          3D

 10 10  0  0  0  0  0  0  0  0999 V2000
    6.5877   -2.1192   -6.4838 C   0  0  0  0  0  0  0  0  0  0  0  0
    5.6406   -2.0952   -7.6324 C   0  0  0  0  0  3  0  0  0  0  0  0
    5.1034   -0.7671   -7.9945 C   0  0  0  0  0  0  0  0  0  0  0  0
    6.0667    0.3596   -7.9547 C   0  0  2  0  0  0  0  0  0  0  0  0
    7.3523    0.0456   -8.3312 O   0  0  0  0  0  0  0  0  0  0  0  0
    6.0256    0.9666   -6.5554 C   0  0  2  0  0  0  0  0  0  0  0  0
    6.3337    2.3151   -6.5729 O   0  0  0  0  0  0  0  0  0  0  0  0
    6.9790    0.1540   -5.7086 C   0  0  0  0  0  3  0  0  0  0  0  0
    6.2614   -1.1548   -5.3870 C   0  0  2  0  0  0  0  0  0  0  0  0
    6.7325   -1.5867   -4.1491 O   0  0  0  0  0  0  0  0  0  0  0  0
  1  2  1  0
  2  3  1  0
  3  4  1  0
  4  5  1  1
  4  6  1  0
  6  7  1  6
  6  8  1  0
  8  9  1  0
  9 10  1  1
  9  1  1  0
M  RAD  2   2   2   8   2
M  END
>  <docking_score>  (1) 
-3.863

$$$$

     RDKit          3D

 10 10  0  0  0  0  0  0  0  0999 V2000
   18.9762   -4.4763   -2.6281 C   0  0  0  0  0  0  0  0  0  0  0  0
   17.8741   -5.4711   -2.7411 C   0  0  0  0  0  3  0  0  0  0  0  0
   16.5064   -4.9360   -2.5786 C   0  0  0  0  0  0  0  0  0  0  0  0
   16.2365   -3.6278   -3.2229 C   0  0  2  0  0  0  0  0  0  0  0  0
   16.8875   -3.4164   -4.4164 O   0  0  0  0  0  0  0  0  0  0  0  0
   16.5512   -2.5297   -2.2114 C   0  0  2  0  0  0  0  0  0  0  0  0
   15.7739   -1.4043   -2.4187 O   0  0  0  0  0  0  0  0  0  0  0  0
   18.0333   -2.2532   -2.3276 C   0  0  0  0  0  3  0  0  0  0  0  0
   18.7432   -3.4011   -1.6136 C   0  0  2  0  0  0  0  0  0  0  0  0
   19.9352   -2.8913   -1.1036 O   0  0  0  0  0  0  0  0  0  0  0  0
  1  2  1  0
  2  3  1  0
  3  4  1  0
  4  5  1  6
  4  6  1  0
  6  7  1  6
  6  8  1  0
  8  9  1  0
  9 10  1  6
  9  1  1  0
M  RAD  2   2   2   8   2
M  END
>  <docking_score>  (2) 
-3.7389999999999999

$$$$

     RDKit          3D

 10 10  0  0  0  0  0  0  0  0999 V2000
   16.5461   -2.4357   -3.5087 C   0  0  0  0  0  0  0  0  0  0  0  0
   16.7867   -2.9915   -2.1486 C   0  0  0  0  0  3  0  0  0  0  0  0
   16.5346   -4.4391   -1.9922 C   0  0  0  0  0  0  0  0  0  0  0  0
   16.9837   -5.3043   -3.1098 C   0  0  2  0  0  0  0  0  0  0  0  0
   18.1424   -4.9024   -3.7335 O   0  0  0  0  0  0  0  0  0  0  0  0
   15.8303   -5.4325   -4.1004 C   0  0  2  0  0  0  0  0  0  0  0  0
   15.8672   -6.6391   -4.7760 O   0  0  0  0  0  0  0  0  0  0  0  0
   15.9227   -4.2369   -5.0215 C   0  0  0  0  0  3  0  0  0  0  0  0
   15.3868   -3.0436   -4.2340 C   0  0  2  0  0  0  0  0  0  0  0  0
   14.8231   -2.1644   -5.1560 O   0  0  0  0  0  0  0  0  0  0  0  0
  1  2  1  0
  2  3  1  0
  3  4  1  0
  4  5  1  6
  4  6  1  0
  6  7  1  6
  6  8  1  0
  8  9  1  0
  9 10  1  6
  9  1  1  0
M  RAD  2   2   2   8   2
M  END
>  <docking_score>  (3) 
-3.5619999999999998

$$$$
