
     RDKit          3D

 74 77  0  0  0  0  0  0  0  0999 V2000
   11.9260   14.9970   15.2684 C   0  0  0  0  0  0  0  0  0  0  0  0
   12.5652   15.4093   14.1090 O   0  0  0  0  0  0  0  0  0  0  0  0
   13.9689   15.1664   14.1754 C   0  0  0  0  0  3  0  0  0  0  0  0
   14.1980   14.6615   12.8274 O   0  0  0  0  0  0  0  0  0  0  0  0
   12.9202   14.2332   12.4862 C   0  0  2  0  0  0  0  0  0  0  0  0
   12.4080   14.8390   11.1411 C   0  0  0  0  0  0  0  0  0  0  0  0
   11.8496   15.2089   13.1134 C   0  0  0  0  0  3  0  0  0  0  0  0
   11.0855   14.9743   11.8365 C   0  0  2  0  0  0  0  0  0  0  0  0
   10.3247   13.7591   11.8441 N   0  0  0  0  0  0  0  0  0  0  0  0
    8.9337   13.9315   12.0250 C   0  0  0  0  0  3  0  0  0  0  0  0
    8.3567   13.2803   13.2058 C   0  0  2  0  0  0  0  0  0  0  0  0
    7.0281   13.7866   13.6233 C   0  0  2  0  0  0  0  0  0  0  0  0
    6.0721   14.0845   12.7207 O   0  0  0  0  0  0  0  0  0  0  0  0
    6.8608   15.0998   13.0587 N   0  0  0  0  0  3  0  0  0  0  0  0
    6.2756   16.0645   14.0140 C   0  0  0  0  0  0  0  0  0  0  0  0
    5.6426   15.2875   15.1626 C   0  0  1  0  0  0  0  0  0  0  0  0
    4.3828   14.7189   14.7361 O   0  0  0  0  0  0  0  0  0  0  0  0
    6.4153   14.3100   15.7487 C   0  0  0  0  0  3  0  0  0  0  0  0
    7.7221   13.9315   16.1042 C   0  0  1  0  0  0  0  0  0  0  0  0
    8.9000   14.4976   15.3137 C   0  0  0  0  0  0  0  0  0  0  0  0
    9.3758   13.3314   14.3421 C   0  0  1  0  0  0  0  0  0  0  0  0
    9.2495   12.0515   15.1513 C   0  0  2  0  0  0  0  0  0  0  0  0
    9.3640   12.2581   16.4979 O   0  0  0  0  0  0  0  0  0  0  0  0
    9.9849   10.9289   14.6190 C   0  0  0  0  0  3  0  0  0  0  0  0
    9.1339    9.7966   14.3353 N   0  0  0  0  0  1  0  0  0  0  0  0
    7.8965   14.1495   17.5506 O   0  0  0  0  0  0  0  0  0  0  0  0
    6.6379   13.9642   17.9997 O   0  0  0  0  0  0  0  0  0  0  0  0
    5.9210   15.1758   17.8488 C   0  0  0  0  0  0  0  0  0  0  0  0
    4.9998   15.3853   18.8406 O   0  0  0  0  0  0  0  0  0  0  0  0
    5.8376   15.4308   20.0454 C   0  0  0  0  0  3  0  0  0  0  0  0
    5.0902   14.4911   21.0189 C   0  0  0  0  0  3  0  0  0  0  0  0
    4.3876   13.4024   20.3026 C   0  0  0  0  0  3  0  0  0  0  0  0
    5.0007   13.1666   18.9318 C   0  0  0  0  0  3  0  0  0  0  0  0
    4.6395   11.9196   18.3996 O   0  0  0  0  0  0  0  0  0  0  0  0
    3.2613   11.7566   18.4078 C   0  0  0  0  0  3  0  0  0  0  0  0
    2.8345   10.8738   17.4116 O   0  0  0  0  0  0  0  0  0  0  0  0
    2.4454   11.6416   16.3204 C   0  0  0  0  0  3  0  0  0  0  0  0
    3.5356   12.5732   16.0547 N   0  0  0  0  0  3  0  0  0  0  0  0
    3.6711   13.3604   17.1350 O   0  0  0  0  0  0  0  0  0  0  0  0
    4.7419   11.7504   15.9578 C   0  0  0  0  0  3  0  0  0  0  0  0
    4.7514   10.9365   17.1177 O   0  0  0  0  0  0  0  0  0  0  0  0
    5.6160    9.8883   16.8178 C   0  0  0  0  0  3  0  0  0  0  0  0
    5.0551    8.6427   17.4232 C   0  0  2  0  0  0  0  0  0  0  0  0
    6.1447    7.6971   17.8375 C   0  0  0  0  0  0  0  0  0  0  0  0
    3.9688    8.0098   16.6069 C   0  0  0  0  0  3  0  0  0  0  0  0
    2.7807    8.9780   16.6392 C   0  0  0  0  0  3  0  0  0  0  0  0
    2.4747    9.1921   15.2724 O   0  0  0  0  0  0  0  0  0  0  0  0
    3.3414    8.4027   14.6140 O   0  0  0  0  0  0  0  0  0  0  0  0
    4.5479    9.1333   14.5527 C   0  0  0  0  0  3  0  0  0  0  0  0
    5.3167    8.5329   13.5920 O   0  0  0  0  0  0  0  0  0  0  0  0
    5.4873    7.1654   13.6902 C   0  0  0  0  0  0  0  0  0  0  0  0
    4.3571    6.5456   14.3383 C   0  0  0  0  0  3  0  0  0  0  0  0
    3.0141    6.8439   13.9579 N   0  0  0  0  0  3  0  0  0  0  0  0
    2.6852    7.7992   13.1408 N   0  0  0  0  0  0  0  0  0  0  0  0
    3.6804    8.6326   12.5588 C   0  0  0  0  0  3  0  0  0  0  0  0
    3.1821    9.0032   11.1512 C   0  0  2  0  0  0  0  0  0  0  0  0
    2.4712    7.8273   10.4929 C   0  0  0  0  0  0  0  0  0  0  0  0
    4.4175    9.2258   10.3474 N   0  0  0  0  0  2  0  0  0  0  0  0
    4.6273    8.2189    9.4828 O   0  0  0  0  0  0  0  0  0  0  0  0
    3.8777    8.3313    8.3754 O   0  0  0  0  0  0  0  0  0  0  0  0
    4.3780    9.3206    7.5752 C   0  0  1  0  0  0  0  0  0  0  0  0
    4.7426   10.4647    8.5727 C   0  0  0  0  0  3  0  0  0  0  0  0
    4.2513   11.7759    7.9241 C   0  0  0  0  0  3  0  0  0  0  0  0
    4.7157   11.7518    6.4526 C   0  0  0  0  0  3  0  0  0  0  0  0
    5.1374   13.0114    6.0810 O   0  0  0  0  0  0  0  0  0  0  0  0
    5.1821   13.8271    7.1879 N   0  0  0  0  0  0  0  0  0  0  0  0
    6.5481   13.7936    7.6683 C   0  0  0  0  0  3  0  0  0  0  0  0
    7.1123   12.5246    7.5977 O   0  0  0  0  0  0  0  0  0  0  0  0
    7.5805   12.1906    8.8904 C   0  0  0  0  0  0  0  0  0  0  0  0
    8.0860   10.7857    8.9037 C   0  0  0  0  0  0  0  0  0  0  0  0
    6.9927    9.8322    8.5208 C   0  0  0  0  0  0  0  0  0  0  0  0
    6.7306    9.8513    7.1576 O   0  0  0  0  0  0  0  0  0  0  0  0
    5.7072    8.8978    6.9304 C   0  0  1  0  0  0  0  0  0  0  0  0
    6.1962    7.5493    7.3515 C   0  0  0  0  0  2  0  0  0  0  0  0
  1  2  1  0
  2  3  1  0
  3  4  1  0
  5  4  1  1
  5  6  1  0
  5  7  1  0
  7  8  1  0
  8  9  1  1
  9 10  1  0
 11 10  1  6
 11 12  1  0
 12 13  1  6
 12 14  1  0
 14 15  1  0
 15 16  1  0
 16 17  1  6
 16 18  1  0
 18 19  1  0
 19 20  1  0
 21 20  1  1
 21 22  1  0
 22 23  1  1
 22 24  1  0
 24 25  1  0
 19 26  1  1
 26 27  1  0
 27 28  1  0
 28 29  1  0
 29 30  1  0
 30 31  1  0
 31 32  1  0
 32 33  1  0
 33 34  1  0
 34 35  1  0
 35 36  1  0
 36 37  1  0
 37 38  1  0
 38 39  1  0
 38 40  1  0
 40 41  1  0
 41 42  1  0
 42 43  1  0
 43 44  1  6
 43 45  1  0
 45 46  1  0
 46 47  1  0
 47 48  1  0
 48 49  1  0
 49 50  1  0
 50 51  1  0
 51 52  1  0
 52 53  1  0
 53 54  2  3
 54 55  1  0
 55 56  1  0
 56 57  1  6
 56 58  1  0
 58 59  1  0
 59 60  1  0
 61 60  1  1
 61 62  1  0
 62 63  1  0
 63 64  1  0
 64 65  1  0
 65 66  1  0
 66 67  1  0
 67 68  1  0
 68 69  1  0
 69 70  1  0
 70 71  1  0
 71 72  1  0
 72 73  1  0
 73 74  1  1
  8  6  1  0
 21 11  1  0
 14 13  1  0
 73 61  1  0
M  RAD  8   3   2   7   2  10   2  14   2  18   2  24   2  25   2  30   2
M  RAD  8  31   2  32   2  33   2  35   2  37   2  38   2  40   2  42   2
M  RAD  8  45   2  46   2  49   2  52   2  53   2  55   2  58   3  62   2
M  CHG  5  14   1  25   1  38   1  53   1  58   1
M  RAD  4  63   2  64   2  67   2  74   3
M  END
>  <docking_score>  (1) 
42.835999999999999

$$$$
