
     RDKit          3D

 20 19  0  0  0  0  0  0  0  0999 V2000
   19.3580   -3.4566   -1.2194 C   0  0  0  0  0  0  0  0  0  0  0  0
   18.2139   -3.1845   -2.1134 C   0  0  0  0  0  0  0  0  0  0  0  0
   17.7998   -4.1460   -3.1525 C   0  0  0  0  0  0  0  0  0  0  0  0
   18.6038   -5.4187   -3.1415 C   0  0  0  0  0  0  0  0  0  0  0  0
   17.5556   -2.0605   -1.9748 C   0  0  0  0  0  0  0  0  0  0  0  0
   16.4408   -1.7662   -2.8261 C   0  0  0  0  0  0  0  0  0  0  0  0
   15.5137   -1.5215   -3.5599 C   0  0  0  0  0  0  0  0  0  0  0  0
   14.4234   -1.2384   -4.4529 C   0  0  0  0  0  0  0  0  0  0  0  0
   14.5609   -1.5307   -5.7159 C   0  0  0  0  0  0  0  0  0  0  0  0
   15.7230   -2.1220   -6.3162 C   0  0  0  0  0  0  0  0  0  0  0  0
   15.7367   -3.3701   -6.6924 C   0  0  0  0  0  0  0  0  0  0  0  0
   14.5618   -4.2311   -6.5195 C   0  0  1  0  0  0  0  0  0  0  0  0
   14.5005   -5.0914   -7.8008 C   0  0  0  0  0  0  0  0  0  0  0  0
   14.7187   -5.2476   -5.4242 C   0  0  0  0  0  0  0  0  0  0  0  0
   13.9701   -6.2152   -5.3550 O   0  0  0  0  0  0  0  0  0  0  0  0
   16.9331   -3.9026   -7.2911 C   0  0  0  0  0  0  0  0  0  0  0  0
   17.6818   -3.3293   -8.1878 C   0  0  0  0  0  0  0  0  0  0  0  0
   17.4670   -2.0876   -8.7395 O   0  0  0  0  0  0  0  0  0  0  0  0
   18.8605   -4.0666   -8.6563 C   0  0  0  0  0  0  0  0  0  0  0  0
   19.6852   -4.6083   -7.9081 O   0  0  0  0  0  0  0  0  0  0  0  0
  1  2  1  0
  2  3  1  0
  3  4  1  0
  2  5  2  3
  5  6  1  0
  6  7  3  0
  7  8  1  0
  8  9  2  3
  9 10  1  0
 10 11  2  3
 11 12  1  0
 12 13  1  6
 12 14  1  0
 14 15  2  0
 11 16  1  0
 16 17  2  3
 17 18  1  0
 17 19  1  0
 19 20  2  0
M  END
>  <docking_score>  (1) 
-4.3419999999999996

$$$$

     RDKit          3D

 20 19  0  0  0  0  0  0  0  0999 V2000
   19.5359   -8.1444   -3.8708 C   0  0  0  0  0  0  0  0  0  0  0  0
   18.5446   -7.3188   -4.5905 C   0  0  0  0  0  0  0  0  0  0  0  0
   18.6582   -5.8492   -4.6464 C   0  0  0  0  0  0  0  0  0  0  0  0
   19.7024   -5.2960   -3.7138 C   0  0  0  0  0  0  0  0  0  0  0  0
   17.5432   -7.9122   -5.1913 C   0  0  0  0  0  0  0  0  0  0  0  0
   16.5644   -7.1400   -5.8981 C   0  0  0  0  0  0  0  0  0  0  0  0
   15.7366   -6.4781   -6.4766 C   0  0  0  0  0  0  0  0  0  0  0  0
   14.7509   -5.6741   -7.1460 C   0  0  0  0  0  0  0  0  0  0  0  0
   14.3483   -4.5755   -6.5710 C   0  0  0  0  0  0  0  0  0  0  0  0
   14.8044   -4.0787   -5.3039 C   0  0  0  0  0  0  0  0  0  0  0  0
   15.8308   -3.2801   -5.2132 C   0  0  0  0  0  0  0  0  0  0  0  0
   16.5697   -2.8506   -6.4054 C   0  0  1  0  0  0  0  0  0  0  0  0
   15.8735   -1.5504   -6.8644 C   0  0  0  0  0  0  0  0  0  0  0  0
   17.9756   -2.4086   -6.1131 C   0  0  0  0  0  0  0  0  0  0  0  0
   18.2752   -1.2205   -6.1282 O   0  0  0  0  0  0  0  0  0  0  0  0
   16.2365   -2.8142   -3.9126 C   0  0  0  0  0  0  0  0  0  0  0  0
   15.7018   -1.8469   -3.2256 C   0  0  0  0  0  0  0  0  0  0  0  0
   14.6321   -1.0771   -3.6197 O   0  0  0  0  0  0  0  0  0  0  0  0
   16.2867   -1.5453   -1.9143 C   0  0  0  0  0  0  0  0  0  0  0  0
   17.4821   -1.2797   -1.7300 O   0  0  0  0  0  0  0  0  0  0  0  0
  1  2  1  0
  2  3  1  0
  3  4  1  0
  2  5  2  3
  5  6  1  0
  6  7  3  0
  7  8  1  0
  8  9  2  3
  9 10  1  0
 10 11  2  3
 11 12  1  0
 12 13  1  1
 12 14  1  0
 14 15  2  0
 11 16  1  0
 16 17  2  3
 17 18  1  0
 17 19  1  0
 19 20  2  0
M  END
>  <docking_score>  (2) 
-4.3220000000000001

$$$$

     RDKit          3D

 20 19  0  0  0  0  0  0  0  0999 V2000
   13.8241    0.1589   -4.3647 C   0  0  0  0  0  0  0  0  0  0  0  0
   14.6081   -0.9655   -4.9154 C   0  0  0  0  0  0  0  0  0  0  0  0
   15.0209   -2.1045   -4.0741 C   0  0  0  0  0  0  0  0  0  0  0  0
   15.9079   -1.7064   -2.9248 C   0  0  0  0  0  0  0  0  0  0  0  0
   14.9416   -0.9442   -6.1819 C   0  0  0  0  0  0  0  0  0  0  0  0
   15.7020   -2.0196   -6.7472 C   0  0  0  0  0  0  0  0  0  0  0  0
   16.3569   -2.9229   -7.2087 C   0  0  0  0  0  0  0  0  0  0  0  0
   17.1513   -3.9977   -7.7377 C   0  0  0  0  0  0  0  0  0  0  0  0
   18.1355   -4.4579   -7.0173 C   0  0  0  0  0  0  0  0  0  0  0  0
   18.5123   -3.9844   -5.7157 C   0  0  0  0  0  0  0  0  0  0  0  0
   19.1661   -4.7390   -4.8776 C   0  0  0  0  0  0  0  0  0  0  0  0
   19.5485   -6.1115   -5.2266 C   0  0  1  0  0  0  0  0  0  0  0  0
   20.9375   -6.3188   -4.5835 C   0  0  0  0  0  0  0  0  0  0  0  0
   18.6980   -7.1582   -4.5642 C   0  0  0  0  0  0  0  0  0  0  0  0
   19.1289   -7.8114   -3.6213 O   0  0  0  0  0  0  0  0  0  0  0  0
   19.5173   -4.2036   -3.5879 C   0  0  0  0  0  0  0  0  0  0  0  0
   18.7866   -4.2127   -2.5111 C   0  0  0  0  0  0  0  0  0  0  0  0
   17.5227   -4.7445   -2.4021 O   0  0  0  0  0  0  0  0  0  0  0  0
   19.3547   -3.6037   -1.3033 C   0  0  0  0  0  0  0  0  0  0  0  0
   20.0475   -2.5773   -1.3013 O   0  0  0  0  0  0  0  0  0  0  0  0
  1  2  1  0
  2  3  1  0
  3  4  1  0
  2  5  2  3
  5  6  1  0
  6  7  3  0
  7  8  1  0
  8  9  2  3
  9 10  1  0
 10 11  2  3
 11 12  1  0
 12 13  1  1
 12 14  1  0
 14 15  2  0
 11 16  1  0
 16 17  2  3
 17 18  1  0
 17 19  1  0
 19 20  2  0
M  END
>  <docking_score>  (3) 
-4.1959999999999997

$$$$
