
     RDKit          3D

 34 34  0  0  0  0  0  0  0  0999 V2000
   14.8743   -1.1867   -6.7695 C   0  0  0  0  0  0  0  0  0  0  0  0
   15.6948   -2.3187   -7.3700 C   0  0  0  0  0  0  0  0  0  0  0  0
   17.1267   -1.8503   -7.6303 C   0  0  0  0  0  0  0  0  0  0  0  0
   15.0979   -2.6226   -8.7330 C   0  0  0  0  0  0  0  0  0  0  0  0
   15.7143   -3.5173   -6.4629 C   0  0  0  0  0  0  0  0  0  0  0  0
   16.8877   -3.3918   -5.5617 C   0  0  0  0  0  0  0  0  0  0  0  0
   17.7171   -4.6275   -5.4357 C   0  0  0  0  0  0  0  0  0  0  0  0
   17.1597   -5.7328   -5.1742 C   0  0  0  0  0  0  0  0  0  0  0  0
   17.3189   -7.0240   -4.9612 N   0  0  0  0  0  0  0  0  0  0  0  0
   17.4851   -8.1577   -5.3296 C   0  0  0  0  0  0  0  0  0  0  0  0
   17.6438   -8.9554   -6.4418 C   0  0  0  0  0  0  0  0  0  0  0  0
   18.4270   -9.1532   -7.4466 C   0  0  0  0  0  0  0  0  0  0  0  0
   18.0978  -10.2083   -8.3856 O   0  0  0  0  0  0  0  0  0  0  0  0
   19.6138   -8.4682   -7.7885 N   0  0  0  0  0  0  0  0  0  0  0  0
   19.8328   -7.2574   -8.4813 C   0  0  0  0  0  0  0  0  0  0  0  0
   21.0568   -6.4797   -8.1804 C   0  0  0  0  0  0  0  0  0  0  0  0
   20.7073   -5.0753   -7.6092 C   0  0  0  0  0  0  0  0  0  0  0  0
   19.6342   -5.4408   -6.6012 C   0  0  1  0  0  0  0  0  0  0  0  0
   18.4438   -5.7829   -7.4422 C   0  0  0  0  0  2  0  0  0  0  0  0
   20.2574   -6.5430   -5.8154 C   0  0  0  0  0  0  0  0  0  0  0  0
   20.9470   -5.9652   -4.6333 C   0  0  0  0  0  0  0  0  0  0  0  0
   20.6521   -6.3584   -3.3832 C   0  0  0  0  0  0  0  0  0  0  0  0
   21.3718   -5.7497   -2.2146 C   0  0  0  0  0  0  0  0  0  0  0  0
   19.2009   -4.3764   -5.6561 C   0  0  1  0  0  0  0  0  0  0  0  0
   19.4645   -2.9864   -6.1708 C   0  0  0  0  0  0  0  0  0  0  0  0
   20.4401   -2.3176   -5.2363 C   0  0  0  0  0  0  0  0  0  0  0  0
   20.0925   -2.6919   -3.8212 C   0  0  0  0  0  0  0  0  0  0  0  0
   20.1924   -1.4769   -3.0073 N   0  0  0  0  0  0  0  0  0  0  0  0
   20.1666   -0.3637   -3.9688 C   0  0  0  0  0  0  0  0  0  0  0  0
   19.0264   -1.3770   -2.1317 C   0  0  0  0  0  0  0  0  0  0  0  0
   18.5901   -2.7639   -1.8650 C   0  0  0  0  0  0  0  0  0  0  0  0
   17.3166   -3.1061   -1.9212 C   0  0  0  0  0  0  0  0  0  0  0  0
   16.2600   -2.0973   -2.2587 C   0  0  0  0  0  0  0  0  0  0  0  0
   16.1726   -1.1287   -1.2890 F   0  0  0  0  0  0  0  0  0  0  0  0
  1  2  1  0
  2  3  1  0
  2  4  1  0
  2  5  1  0
  5  6  1  0
  6  7  1  0
  7  8  2  3
  8  9  1  0
  9 10  2  3
 10 11  1  0
 11 12  2  3
 12 13  1  0
 12 14  1  0
 14 15  1  0
 15 16  1  0
 16 17  1  0
 17 18  1  0
 18 19  1  6
 18 20  1  0
 20 21  1  0
 21 22  2  3
 22 23  1  0
 18 24  1  0
 24 25  1  6
 25 26  1  0
 26 27  1  0
 27 28  1  0
 28 29  1  0
 28 30  1  0
 30 31  1  0
 31 32  2  3
 32 33  1  0
 33 34  1  0
 24  7  1  0
M  RAD  1  19   3
M  END
>  <docking_score>  (1) 
-3.8210000000000002

$$$$
