
     RDKit          3D

 48 49  0  0  0  0  0  0  0  0999 V2000
   20.9279   -7.7506   -8.5061 C   0  0  0  0  0  0  0  0  0  0  0  0
   19.5860   -7.0896   -8.7340 C   0  0  0  0  0  0  0  0  0  0  0  0
   18.6290   -7.5758   -7.6492 C   0  0  0  0  0  0  0  0  0  0  0  0
   19.7783   -5.6076   -8.5359 C   0  0  0  0  0  0  0  0  0  0  0  0
   18.4579   -5.0428   -7.9969 C   0  0  0  0  0  0  0  0  0  0  0  0
   17.2899   -5.7323   -8.6651 C   0  0  0  0  0  0  0  0  0  0  0  0
   15.9793   -5.0304   -8.3361 C   0  0  1  0  0  0  0  0  0  0  0  0
   14.8398   -6.0058   -8.3739 C   0  0  0  0  0  2  0  0  0  0  0  0
   16.0980   -4.3775   -6.9722 C   0  0  0  0  0  0  0  0  0  0  0  0
   17.0294   -5.1449   -6.0785 C   0  0  0  0  0  0  0  0  0  0  0  0
   16.4862   -5.2669   -4.6893 C   0  0  0  0  0  3  0  0  0  0  0  0
   15.1107   -4.6419   -4.6117 C   0  0  0  0  0  0  0  0  0  0  0  0
   14.8668   -3.6813   -5.7500 C   0  0  0  0  0  0  0  0  0  0  0  0
   14.1474   -2.4392   -5.2728 C   0  0  0  0  0  0  0  0  0  0  0  0
   15.1235   -1.2794   -5.3449 C   0  0  1  0  0  0  0  0  0  0  0  0
   15.7832   -0.8528   -4.0759 C   0  0  0  0  0  3  0  0  0  0  0  0
   14.7522   -0.7200   -2.9570 C   0  0  0  0  0  0  0  0  0  0  0  0
   15.1663   -1.6187   -1.8041 C   0  0  0  0  0  0  0  0  0  0  0  0
   14.8798   -0.8791   -0.5186 C   0  0  0  0  0  3  0  0  0  0  0  0
   15.4610   -1.5034    0.5651 O   0  0  0  0  0  0  0  0  0  0  0  0
   16.2937   -2.5635    0.1675 C   0  0  0  0  0  3  0  0  0  0  0  0
   15.4189   -3.6140   -0.5128 C   0  0  0  0  0  0  0  0  0  0  0  0
   15.8848   -1.0255   -6.5930 C   0  0  0  0  0  0  0  0  0  0  0  0
   14.6789   -0.2168   -6.3568 C   0  0  2  0  0  0  0  0  0  0  0  0
   14.7197    1.1523   -5.8504 C   0  0  0  0  0  0  0  0  0  0  0  0
   15.8556    1.7088   -5.6095 N   0  0  0  0  0  4  0  0  0  0  0  0
   15.9484    3.0269   -5.1201 N   0  0  0  0  0  0  0  0  0  0  0  0
   17.0819    0.9730   -5.8428 C   0  0  0  0  0  0  0  0  0  0  0  0
   18.1982    1.9020   -6.1898 C   0  0  0  0  0  3  0  0  0  0  0  0
   19.5462    1.3438   -6.0107 C   0  0  1  0  0  0  0  0  0  0  0  0
   20.5660    2.0944   -6.5787 O   0  0  0  0  0  1  0  0  0  0  0  0
   19.8933    1.0794   -4.5750 C   0  0  2  0  0  0  0  0  0  0  0  0
   19.6739    2.2947   -3.9119 F   0  0  0  0  0  0  0  0  0  0  0  0
   21.3819    0.8110   -4.4067 C   0  0  0  0  0  2  0  0  0  0  0  0
   19.1477   -0.0249   -3.9801 C   0  0  0  0  0  0  0  0  0  0  0  0
   19.6572   -0.9100   -2.9585 C   0  0  0  0  0  0  0  0  0  0  0  0
   18.8219   -1.3414   -1.8546 C   0  0  0  0  0  0  0  0  0  0  0  0
   18.9312   -2.6301   -1.2679 C   0  0  1  0  0  0  0  0  0  0  0  0
   18.6721   -3.7629   -1.9718 O   0  0  0  0  0  0  0  0  0  0  0  0
   19.9233   -4.0257   -2.5753 C   0  0  1  0  0  0  0  0  0  0  0  0
   20.8913   -3.9204   -1.4185 C   0  0  0  0  0  3  0  0  0  0  0  0
   20.1939   -2.9251   -0.5014 C   0  0  1  0  0  0  0  0  0  0  0  0
   20.9815   -1.6537   -0.3739 C   0  0  0  0  0  0  0  0  0  0  0  0
   20.6152   -0.6973   -1.2796 F   0  0  0  0  0  0  0  0  0  0  0  0
   19.8682   -5.3886   -3.1796 C   0  0  0  0  0  0  0  0  0  0  0  0
   19.1168   -6.3950   -2.3722 C   0  0  0  0  0  3  0  0  0  0  0  0
   17.6306   -6.3946   -2.6392 C   0  0  0  0  0  0  0  0  0  0  0  0
   17.4188   -7.3464   -3.6629 O   0  0  0  0  0  1  0  0  0  0  0  0
  1  2  1  0
  2  3  1  0
  2  4  1  0
  4  5  1  0
  5  6  1  0
  6  7  1  0
  7  8  1  1
  7  9  1  0
  9 10  1  0
 10 11  1  0
 11 12  1  0
 12 13  1  0
 13 14  1  0
 15 14  1  1
 15 16  1  0
 16 17  1  0
 17 18  1  0
 18 19  1  0
 19 20  1  0
 20 21  1  0
 21 22  1  0
 15 23  1  0
 15 24  1  0
 24 25  1  0
 25 26  2  3
 26 27  1  0
 26 28  1  0
 28 29  1  0
 29 30  1  0
 30 31  1  1
 30 32  1  0
 32 33  1  0
 32 34  1  6
 32 35  1  0
 35 36  1  0
 36 37  1  0
 38 37  1  6
 38 39  1  0
 39 40  1  0
 40 41  1  0
 41 42  1  0
 42 43  1  6
 43 44  1  0
 40 45  1  1
 45 46  1  0
 46 47  1  0
 47 48  1  0
 24 23  1  6
 42 38  1  0
M  RAD  8   8   3  11   2  16   2  19   2  21   2  29   2  34   3  41   2
M  CHG  3  26   1  31  -1  48  -1
M  RAD  1  46   2
M  END
>  <docking_score>  (1) 
7.7350000000000003

$$$$

     RDKit          3D

 48 49  0  0  0  0  0  0  0  0999 V2000
   19.4497    7.7684   -2.6154 C   0  0  0  0  0  0  0  0  0  0  0  0
   20.7625    7.2598   -2.0608 C   0  0  0  0  0  0  0  0  0  0  0  0
   20.4573    6.3933   -0.8423 C   0  0  0  0  0  0  0  0  0  0  0  0
   21.3743    6.3660   -3.1092 C   0  0  0  0  0  0  0  0  0  0  0  0
   20.3693    6.2600   -4.2633 C   0  0  0  0  0  0  0  0  0  0  0  0
   20.7049    5.0696   -5.1330 C   0  0  0  0  0  0  0  0  0  0  0  0
   20.4099    5.3621   -6.5980 C   0  0  1  0  0  0  0  0  0  0  0  0
   20.5420    4.1124   -7.4177 C   0  0  0  0  0  2  0  0  0  0  0  0
   19.0161    5.9493   -6.7130 C   0  0  0  0  0  0  0  0  0  0  0  0
   17.9653    4.8781   -6.6506 C   0  0  0  0  0  0  0  0  0  0  0  0
   18.5112    3.5448   -7.0556 C   0  0  0  0  0  3  0  0  0  0  0  0
   17.7775    2.4394   -6.3285 C   0  0  0  0  0  0  0  0  0  0  0  0
   18.6546    1.7663   -5.3011 C   0  0  0  0  0  0  0  0  0  0  0  0
   19.6664    0.8544   -5.9591 C   0  0  0  0  0  0  0  0  0  0  0  0
   18.9298   -0.3751   -6.4577 C   0  0  1  0  0  0  0  0  0  0  0  0
   17.8009   -0.8875   -5.6267 C   0  0  0  0  0  3  0  0  0  0  0  0
   16.5736    0.0080   -5.7835 C   0  0  0  0  0  0  0  0  0  0  0  0
   15.5028   -0.4590   -4.8122 C   0  0  0  0  0  0  0  0  0  0  0  0
   14.3451   -0.9898   -5.6244 C   0  0  0  0  0  3  0  0  0  0  0  0
   14.7795   -1.7684   -6.6766 O   0  0  0  0  0  0  0  0  0  0  0  0
   15.5257   -2.8728   -6.2307 C   0  0  0  0  0  3  0  0  0  0  0  0
   15.6400   -3.8581   -7.3917 C   0  0  0  0  0  0  0  0  0  0  0  0
   18.8462   -0.6519   -7.9131 C   0  0  0  0  0  0  0  0  0  0  0  0
   19.8728   -1.3709   -7.1432 C   0  0  2  0  0  0  0  0  0  0  0  0
   19.7178   -2.7529   -6.6973 C   0  0  0  0  0  0  0  0  0  0  0  0
   19.4717   -2.9984   -5.4575 N   0  0  0  0  0  4  0  0  0  0  0  0
   19.3139   -4.3138   -4.9776 N   0  0  0  0  0  0  0  0  0  0  0  0
   19.3507   -1.9030   -4.5167 C   0  0  0  0  0  0  0  0  0  0  0  0
   18.6924   -2.3587   -3.2563 C   0  0  0  0  0  3  0  0  0  0  0  0
   19.2351   -1.7662   -2.0254 C   0  0  1  0  0  0  0  0  0  0  0  0
   18.2847   -1.2116   -1.1797 O   0  0  0  0  0  1  0  0  0  0  0  0
   20.0809   -2.7177   -1.2313 C   0  0  2  0  0  0  0  0  0  0  0  0
   21.3678   -2.1622   -1.2382 F   0  0  0  0  0  0  0  0  0  0  0  0
   20.2324   -4.0521   -1.9474 C   0  0  0  0  0  2  0  0  0  0  0  0
   19.5852   -2.9640    0.1188 C   0  0  0  0  0  0  0  0  0  0  0  0
   18.4065   -3.7357    0.4381 C   0  0  0  0  0  0  0  0  0  0  0  0
   17.0772   -3.2156    0.1835 C   0  0  0  0  0  0  0  0  0  0  0  0
   16.4183   -3.3722   -1.0648 C   0  0  1  0  0  0  0  0  0  0  0  0
   17.0303   -3.9499   -2.1313 O   0  0  0  0  0  0  0  0  0  0  0  0
   16.7629   -5.3213   -1.9154 C   0  0  1  0  0  0  0  0  0  0  0  0
   15.2750   -5.3428   -1.6472 C   0  0  0  0  0  3  0  0  0  0  0  0
   15.0357   -3.9692   -1.0355 C   0  0  1  0  0  0  0  0  0  0  0  0
   14.5936   -4.0767    0.3949 C   0  0  0  0  0  0  0  0  0  0  0  0
   13.7620   -5.1370    0.6259 F   0  0  0  0  0  0  0  0  0  0  0  0
   17.1539   -6.0681   -3.1464 C   0  0  0  0  0  0  0  0  0  0  0  0
   16.0218   -6.3788   -4.0690 C   0  0  0  0  0  3  0  0  0  0  0  0
   16.4669   -6.8582   -5.4299 C   0  0  0  0  0  0  0  0  0  0  0  0
   15.2834   -7.0776   -6.1715 O   0  0  0  0  0  1  0  0  0  0  0  0
  1  2  1  0
  2  3  1  0
  2  4  1  0
  4  5  1  0
  5  6  1  0
  6  7  1  0
  7  8  1  6
  7  9  1  0
  9 10  1  0
 10 11  1  0
 11 12  1  0
 12 13  1  0
 13 14  1  0
 15 14  1  6
 15 16  1  0
 16 17  1  0
 17 18  1  0
 18 19  1  0
 19 20  1  0
 20 21  1  0
 21 22  1  0
 15 23  1  0
 15 24  1  0
 24 25  1  0
 25 26  2  3
 26 27  1  0
 26 28  1  0
 28 29  1  0
 29 30  1  0
 30 31  1  1
 30 32  1  0
 32 33  1  0
 32 34  1  6
 32 35  1  0
 35 36  1  0
 36 37  1  0
 38 37  1  1
 38 39  1  0
 39 40  1  0
 40 41  1  0
 41 42  1  0
 42 43  1  1
 43 44  1  0
 40 45  1  6
 45 46  1  0
 46 47  1  0
 47 48  1  0
 24 23  1  6
 42 38  1  0
M  RAD  8   8   3  11   2  16   2  19   2  21   2  29   2  34   3  41   2
M  CHG  3  26   1  31  -1  48  -1
M  RAD  1  46   2
M  END
>  <docking_score>  (2) 
8.3989999999999991

$$$$
