
     RDKit          3D

 27 28  0  0  0  0  0  0  0  0999 V2000
   16.0336   -6.6570   -5.7901 C   0  0  0  0  0  0  0  0  0  0  0  0
   17.5169   -6.8547   -5.8912 C   0  0  1  0  0  0  0  0  0  0  0  0
   17.9443   -8.2367   -6.2271 C   0  0  0  0  0  0  0  0  0  0  0  0
   17.9434   -8.5780   -7.6742 C   0  0  2  0  0  0  0  0  0  0  0  0
   18.8146   -9.6594   -7.8597 O   0  0  0  0  0  0  0  0  0  0  0  0
   18.3771   -7.4773   -8.5818 C   0  0  2  0  0  0  0  0  0  0  0  0
   19.7615   -7.2784   -8.4008 O   0  0  0  0  0  0  0  0  0  0  0  0
   17.7038   -6.1712   -8.2144 C   0  0  1  0  0  0  0  0  0  0  0  0
   16.3084   -6.3305   -8.1028 O   0  0  0  0  0  0  0  0  0  0  0  0
   18.1892   -5.8498   -6.7950 C   0  0  1  0  0  0  0  0  0  0  0  0
   17.8740   -4.4901   -6.4356 N   0  0  0  0  0  0  0  0  0  0  0  0
   18.4145   -4.1990   -5.1494 C   0  0  1  0  0  0  0  0  0  0  0  0
   19.7459   -3.5662   -5.1149 C   0  0  0  0  0  0  0  0  0  0  0  0
   19.7977   -2.2052   -4.4778 C   0  0  2  0  0  0  0  0  0  0  0  0
   21.0448   -1.6361   -4.8311 O   0  0  0  0  0  0  0  0  0  0  0  0
   19.7953   -2.2890   -2.9673 C   0  0  1  0  0  0  0  0  0  0  0  0
   19.2856   -1.0426   -2.3082 C   0  0  0  0  0  0  0  0  0  0  0  0
   19.1596   -3.5524   -2.4670 C   0  0  1  0  0  0  0  0  0  0  0  0
   19.2834   -3.5488   -1.0669 O   0  0  0  0  0  0  0  0  0  0  0  0
   17.7065   -3.6722   -2.7859 C   0  0  2  0  0  0  0  0  0  0  0  0
   17.2372   -5.0135   -2.2105 C   0  0  0  0  0  0  0  0  0  0  0  0
   17.3723   -3.6759   -4.2387 C   0  0  1  0  0  0  0  0  0  0  0  0
   16.7338   -2.5116   -4.6910 O   0  0  0  0  0  0  0  0  0  0  0  0
   15.9260   -1.8174   -3.9956 N   0  0  0  0  0  0  0  0  0  0  0  0
   15.2607   -1.2108   -3.2704 N   0  0  0  0  0  4  0  0  0  0  0  0
   14.1041   -0.5303   -3.6550 O   0  0  0  0  0  0  0  0  0  0  0  0
   15.5474   -1.0899   -1.9092 O   0  0  0  0  0  0  0  0  0  0  0  0
  2  1  1  6
  2  3  1  0
  3  4  1  0
  4  5  1  1
  4  6  1  0
  6  7  1  1
  6  8  1  0
  8  9  1  1
  8 10  1  0
 10 11  1  1
 12 11  1  6
 12 13  1  0
 13 14  1  0
 14 15  1  6
 14 16  1  0
 16 17  1  1
 16 18  1  0
 18 19  1  1
 18 20  1  0
 20 21  1  6
 20 22  1  0
 22 23  1  6
 23 24  1  0
 24 25  2  3
 25 26  1  0
 25 27  1  0
 10  2  1  0
 22 12  1  0
M  CHG  1  25   1
M  END
>  <docking_score>  (1) 
-4.8120000000000003

$$$$

     RDKit          3D

 27 28  0  0  0  0  0  0  0  0999 V2000
   20.1875   -0.3601   -3.3365 C   0  0  0  0  0  0  0  0  0  0  0  0
   20.2596   -1.8385   -3.5786 C   0  0  1  0  0  0  0  0  0  0  0  0
   21.1696   -2.5797   -2.6687 C   0  0  0  0  0  0  0  0  0  0  0  0
   20.5923   -2.9669   -1.3544 C   0  0  2  0  0  0  0  0  0  0  0  0
   21.3399   -4.0430   -0.8585 O   0  0  0  0  0  0  0  0  0  0  0  0
   19.1603   -3.3806   -1.3922 C   0  0  2  0  0  0  0  0  0  0  0  0
   19.0803   -4.6274   -2.0465 O   0  0  0  0  0  0  0  0  0  0  0  0
   18.3347   -2.4112   -2.2126 C   0  0  1  0  0  0  0  0  0  0  0  0
   18.5553   -1.0810   -1.8043 O   0  0  0  0  0  0  0  0  0  0  0  0
   18.9027   -2.4975   -3.6351 C   0  0  1  0  0  0  0  0  0  0  0  0
   18.0224   -1.8625   -4.5834 N   0  0  0  0  0  0  0  0  0  0  0  0
   16.9824   -2.7661   -4.9481 C   0  0  1  0  0  0  0  0  0  0  0  0
   15.9257   -2.2420   -5.8328 C   0  0  0  0  0  0  0  0  0  0  0  0
   15.7956   -2.9318   -7.1626 C   0  0  2  0  0  0  0  0  0  0  0  0
   14.9887   -2.1009   -7.9765 O   0  0  0  0  0  0  0  0  0  0  0  0
   15.0518   -4.2441   -7.0469 C   0  0  1  0  0  0  0  0  0  0  0  0
   15.3747   -5.2045   -8.1519 C   0  0  0  0  0  0  0  0  0  0  0  0
   15.1483   -4.8352   -5.6715 C   0  0  1  0  0  0  0  0  0  0  0  0
   14.3640   -6.0016   -5.6691 O   0  0  0  0  0  0  0  0  0  0  0  0
   16.5317   -5.2272   -5.2714 C   0  0  2  0  0  0  0  0  0  0  0  0
   16.4361   -5.7967   -3.8512 C   0  0  0  0  0  0  0  0  0  0  0  0
   17.5223   -4.1139   -5.2329 C   0  0  1  0  0  0  0  0  0  0  0  0
   18.4811   -4.1538   -6.2562 O   0  0  0  0  0  0  0  0  0  0  0  0
   18.9247   -5.2219   -6.7855 N   0  0  0  0  0  0  0  0  0  0  0  0
   19.3530   -6.2294   -7.1569 N   0  0  0  0  0  4  0  0  0  0  0  0
   19.4170   -6.6037   -8.5004 O   0  0  0  0  0  0  0  0  0  0  0  0
   19.8598   -7.1977   -6.2878 O   0  0  0  0  0  0  0  0  0  0  0  0
  2  1  1  1
  2  3  1  0
  3  4  1  0
  4  5  1  6
  4  6  1  0
  6  7  1  6
  6  8  1  0
  8  9  1  1
  8 10  1  0
 10 11  1  6
 12 11  1  6
 12 13  1  0
 13 14  1  0
 14 15  1  6
 14 16  1  0
 16 17  1  6
 16 18  1  0
 18 19  1  6
 18 20  1  0
 20 21  1  1
 20 22  1  0
 22 23  1  6
 23 24  1  0
 24 25  2  3
 25 26  1  0
 25 27  1  0
 10  2  1  0
 22 12  1  0
M  CHG  1  25   1
M  END
>  <docking_score>  (2) 
-4.6849999999999996

$$$$

     RDKit          3D

 27 28  0  0  0  0  0  0  0  0999 V2000
   16.4775   -2.0189   -7.9289 C   0  0  0  0  0  0  0  0  0  0  0  0
   16.5787   -1.3889   -6.5716 C   0  0  1  0  0  0  0  0  0  0  0  0
   15.3163   -0.7991   -6.0578 C   0  0  0  0  0  0  0  0  0  0  0  0
   14.3857   -1.7481   -5.3914 C   0  0  2  0  0  0  0  0  0  0  0  0
   13.5467   -1.0057   -4.5502 O   0  0  0  0  0  0  0  0  0  0  0  0
   15.0437   -2.8038   -4.5693 C   0  0  2  0  0  0  0  0  0  0  0  0
   15.5934   -2.1902   -3.4246 O   0  0  0  0  0  0  0  0  0  0  0  0
   16.2009   -3.4338   -5.3165 C   0  0  1  0  0  0  0  0  0  0  0  0
   15.8113   -3.8458   -6.6062 O   0  0  0  0  0  0  0  0  0  0  0  0
   17.2059   -2.2966   -5.5413 C   0  0  1  0  0  0  0  0  0  0  0  0
   18.4832   -2.8111   -5.9669 N   0  0  0  0  0  0  0  0  0  0  0  0
   18.6193   -4.1637   -5.5388 C   0  0  1  0  0  0  0  0  0  0  0  0
   19.3221   -5.0830   -6.4526 C   0  0  0  0  0  0  0  0  0  0  0  0
   20.5779   -5.7028   -5.9053 C   0  0  2  0  0  0  0  0  0  0  0  0
   21.2683   -6.2663   -7.0052 O   0  0  0  0  0  0  0  0  0  0  0  0
   20.2778   -6.8551   -4.9721 C   0  0  1  0  0  0  0  0  0  0  0  0
   21.3825   -7.1262   -3.9953 C   0  0  0  0  0  0  0  0  0  0  0  0
   18.9186   -6.7440   -4.3470 C   0  0  1  0  0  0  0  0  0  0  0  0
   18.7287   -7.8981   -3.5675 O   0  0  0  0  0  0  0  0  0  0  0  0
   18.7559   -5.5655   -3.4458 C   0  0  2  0  0  0  0  0  0  0  0  0
   17.3193   -5.6123   -2.9125 C   0  0  0  0  0  0  0  0  0  0  0  0
   18.9403   -4.2369   -4.0963 C   0  0  1  0  0  0  0  0  0  0  0  0
   20.1157   -3.5667   -3.7258 O   0  0  0  0  0  0  0  0  0  0  0  0
   20.1485   -2.4108   -3.1959 N   0  0  0  0  0  0  0  0  0  0  0  0
   20.1457   -1.3177   -2.8199 N   0  0  0  0  0  4  0  0  0  0  0  0
   20.4603   -0.9399   -1.5132 O   0  0  0  0  0  0  0  0  0  0  0  0
   19.8209   -0.2390   -3.6449 O   0  0  0  0  0  0  0  0  0  0  0  0
  2  1  1  6
  2  3  1  0
  3  4  1  0
  4  5  1  1
  4  6  1  0
  6  7  1  1
  6  8  1  0
  8  9  1  6
  8 10  1  0
 10 11  1  6
 12 11  1  6
 12 13  1  0
 13 14  1  0
 14 15  1  6
 14 16  1  0
 16 17  1  1
 16 18  1  0
 18 19  1  1
 18 20  1  0
 20 21  1  6
 20 22  1  0
 22 23  1  6
 23 24  1  0
 24 25  2  3
 25 26  1  0
 25 27  1  0
 10  2  1  0
 22 12  1  0
M  CHG  1  25   1
M  END
>  <docking_score>  (3) 
-4.3070000000000004

$$$$
