
     RDKit          3D

 54 54  0  0  0  0  0  0  0  0999 V2000
   15.6770   -4.3572   -0.9021 C   0  0  0  0  0  0  0  0  0  0  0  0
   15.8147   -2.9236   -0.5132 C   0  0  0  0  0  0  0  0  0  0  0  0
   15.0133   -2.5509    0.6880 C   0  0  0  0  0  0  0  0  0  0  0  0
   17.1793   -2.3744   -0.5457 C   0  0  0  0  0  0  0  0  0  0  0  0
   17.9610   -2.4655   -1.7901 C   0  0  0  0  0  0  0  0  0  0  0  0
   19.0298   -3.4858   -1.8544 C   0  0  0  0  0  0  0  0  0  0  0  0
   20.1377   -3.1784   -0.8821 C   0  0  1  0  0  0  0  0  0  0  0  0
   19.7272   -3.7937    0.4771 C   0  0  0  0  0  0  0  0  0  0  0  0
   21.3814   -3.9927   -1.2923 C   0  0  0  0  0  3  0  0  0  0  0  0
   21.2862   -4.1643   -2.7863 C   0  0  0  0  0  3  0  0  0  0  0  0
   20.0475   -3.4963   -3.3089 C   0  0  0  0  0  0  0  0  0  0  0  0
   20.4441   -2.2802   -4.1158 C   0  0  2  0  0  0  0  0  0  0  0  0
   20.9777   -1.2272   -3.1513 C   0  0  0  0  0  0  0  0  0  0  0  0
   19.1471   -1.6959   -4.6901 C   0  0  0  0  0  3  0  0  0  0  0  0
   19.0021   -0.2608   -4.1854 C   0  0  0  0  0  0  0  0  0  0  0  0
   19.6964    0.6481   -5.1565 C   0  0  1  0  0  0  0  0  0  0  0  0
   19.9329   -0.0898   -6.4567 C   0  0  0  0  0  0  0  0  0  0  0  0
   18.9598    1.9365   -5.3832 C   0  0  0  0  0  0  0  0  0  0  0  0
   17.5215    1.7708   -4.9566 C   0  0  0  0  0  0  0  0  0  0  0  0
   16.6124    2.5283   -5.9159 C   0  0  2  0  0  0  0  0  0  0  0  0
   17.2463    3.7894   -6.4140 C   0  0  0  0  0  0  0  0  0  0  0  0
   15.3248    2.8906   -5.1759 C   0  0  0  0  0  2  0  0  0  0  0  0
   16.2185    1.5730   -7.0167 C   0  0  0  0  0  0  0  0  0  0  0  0
   16.1546    0.1909   -6.4059 C   0  0  0  0  0  3  0  0  0  0  0  0
   14.9183   -0.0447   -5.8306 O   0  0  0  0  0  0  0  0  0  0  0  0
   14.9159   -1.3356   -5.3057 C   0  0  0  0  0  0  0  0  0  0  0  0
   14.2031   -2.1990   -6.3227 C   0  0  0  0  0  0  0  0  0  0  0  0
   14.7493   -2.1400   -7.6939 C   0  0  0  0  0  2  0  0  0  0  0  0
   13.1509   -2.9558   -5.9692 C   0  0  0  0  0  0  0  0  0  0  0  0
   12.7443   -2.8927   -4.5604 C   0  0  0  0  0  3  0  0  0  0  0  0
   12.4545   -1.5724   -3.9932 C   0  0  0  0  0  0  0  0  0  0  0  0
   11.2473   -0.9154   -4.3980 C   0  0  0  0  0  0  0  0  0  0  0  0
   10.3114   -0.2988   -3.7408 C   0  0  0  0  0  0  0  0  0  0  0  0
    9.1267    0.3120   -4.4152 C   0  0  0  0  0  0  0  0  0  0  0  0
    7.8256   -0.3362   -4.1329 C   0  0  0  0  0  0  0  0  0  0  0  0
    7.1160   -0.8165   -5.3859 C   0  0  0  0  0  0  0  0  0  0  0  0
    6.7099    0.3332   -6.2627 C   0  0  0  0  0  0  0  0  0  0  0  0
    7.9062   -1.8697   -6.0988 C   0  0  0  0  0  0  0  0  0  0  0  0
   12.4925   -3.7525   -7.0111 C   0  0  1  0  0  0  0  0  0  0  0  0
   12.6780   -3.1683   -8.3963 C   0  0  0  0  0  2  0  0  0  0  0  0
   12.8446   -5.1948   -6.9398 C   0  0  0  0  0  0  0  0  0  0  0  0
   13.8389   -5.7065   -7.9030 C   0  0  0  0  0  3  0  0  0  0  0  0
   14.5728   -4.6759   -8.6897 C   0  0  0  0  0  0  0  0  0  0  0  0
   15.9194   -4.3307   -8.0852 C   0  0  2  0  0  0  0  0  0  0  0  0
   16.9297   -5.3606   -8.5474 C   0  0  0  0  0  0  0  0  0  0  0  0
   18.3137   -4.7648   -8.6687 C   0  0  2  0  0  0  0  0  0  0  0  0
   19.1736   -5.3278   -7.5592 C   0  0  0  0  0  0  0  0  0  0  0  0
   18.3039   -3.2757   -8.7248 C   0  0  0  0  0  3  0  0  0  0  0  0
   18.7750   -2.7040   -7.4102 C   0  0  0  0  0  0  0  0  0  0  0  0
   18.2082   -3.5032   -6.3020 C   0  0  0  0  0  0  0  0  0  0  0  0
   17.1157   -4.1346   -5.9231 C   0  0  0  0  0  0  0  0  0  0  0  0
   15.7921   -4.3239   -6.5771 C   0  0  2  0  0  0  0  0  0  0  0  0
   15.1183   -5.5832   -6.0728 C   0  0  0  0  0  3  0  0  0  0  0  0
   16.0635   -6.2474   -5.1070 C   0  0  0  0  0  1  0  0  0  0  0  0
  1  2  1  0
  2  3  1  0
  2  4  1  0
  4  5  1  0
  5  6  1  0
  6  7  1  0
  7  8  1  1
  7  9  1  0
  9 10  1  0
 10 11  1  0
 11 12  1  0
 12 13  1  1
 12 14  1  0
 14 15  1  0
 15 16  1  0
 16 17  1  6
 16 18  1  0
 18 19  1  0
 19 20  1  0
 20 21  1  6
 20 22  1  0
 20 23  1  0
 23 24  1  0
 24 25  1  0
 25 26  1  0
 26 27  1  0
 27 28  1  0
 27 29  2  3
 29 30  1  0
 30 31  1  0
 31 32  1  0
 32 33  2  3
 33 34  1  0
 34 35  1  0
 35 36  1  0
 36 37  1  0
 36 38  1  0
 29 39  1  0
 39 40  1  6
 39 41  1  0
 41 42  1  0
 42 43  1  0
 44 43  1  6
 44 45  1  0
 45 46  1  0
 46 47  1  1
 46 48  1  0
 48 49  1  0
 49 50  1  0
 50 51  2  3
 44 52  1  0
 52 53  1  1
 53 54  1  0
 52 51  1  0
M  RAD  8   9   2  10   2  14   2  22   3  24   2  28   3  30   2  40   3
M  RAD  4  42   2  48   2  53   2  54   2
M  END
>  <docking_score>  (1) 
18.547000000000001

$$$$

     RDKit          3D

 54 54  0  0  0  0  0  0  0  0999 V2000
   20.0091    9.0999   14.8957 C   0  0  0  0  0  0  0  0  0  0  0  0
   19.4490   10.1421   13.9871 C   0  0  0  0  0  0  0  0  0  0  0  0
   20.0626   10.1420   12.6279 C   0  0  0  0  0  0  0  0  0  0  0  0
   17.9862   10.2989   14.0093 C   0  0  0  0  0  0  0  0  0  0  0  0
   17.2605   10.4505   12.7371 C   0  0  0  0  0  0  0  0  0  0  0  0
   15.7856   10.3473   12.7735 C   0  0  0  0  0  0  0  0  0  0  0  0
   15.1475   11.6994   12.9526 C   0  0  1  0  0  0  0  0  0  0  0  0
   16.0342   12.7189   12.1983 C   0  0  0  0  0  0  0  0  0  0  0  0
   13.8204   11.7162   12.1672 C   0  0  0  0  0  3  0  0  0  0  0  0
   12.7761   12.2099   13.1348 C   0  0  0  0  0  3  0  0  0  0  0  0
   12.3090   13.5813   12.7413 C   0  0  0  0  0  0  0  0  0  0  0  0
   11.3721   14.1089   13.8048 C   0  0  2  0  0  0  0  0  0  0  0  0
   12.1002   15.2054   14.5737 C   0  0  0  0  0  0  0  0  0  0  0  0
   11.1649   12.9675   14.8088 C   0  0  0  0  0  3  0  0  0  0  0  0
   10.9134   11.6793   14.0261 C   0  0  0  0  0  0  0  0  0  0  0  0
    9.4370   11.4122   14.0285 C   0  0  1  0  0  0  0  0  0  0  0  0
    8.9604   11.2276   15.4531 C   0  0  0  0  0  0  0  0  0  0  0  0
    8.6479   12.4748   13.3195 C   0  0  0  0  0  0  0  0  0  0  0  0
    9.1709   13.8336   13.7171 C   0  0  0  0  0  0  0  0  0  0  0  0
    8.4895   14.9092   12.8809 C   0  0  2  0  0  0  0  0  0  0  0  0
    9.4017   16.0608   12.5944 C   0  0  0  0  0  0  0  0  0  0  0  0
    7.2792   15.4289   13.6565 C   0  0  0  0  0  2  0  0  0  0  0  0
    7.9476   14.2427   11.6394 C   0  0  0  0  0  0  0  0  0  0  0  0
    6.4935   13.9222   11.9040 C   0  0  0  0  0  3  0  0  0  0  0  0
    5.7624   13.9103   10.7293 O   0  0  0  0  0  0  0  0  0  0  0  0
    4.5983   14.6502   10.9277 C   0  0  0  0  0  0  0  0  0  0  0  0
    3.7053   14.3500    9.7444 C   0  0  0  0  0  0  0  0  0  0  0  0
    2.2694   14.6281    9.9511 C   0  0  0  0  0  2  0  0  0  0  0  0
    4.2158   13.8662    8.5998 C   0  0  0  0  0  0  0  0  0  0  0  0
    5.6673   13.6514    8.5707 C   0  0  0  0  0  3  0  0  0  0  0  0
    6.4766   14.5727    7.7676 C   0  0  0  0  0  0  0  0  0  0  0  0
    6.4182   14.4525    6.3411 C   0  0  0  0  0  0  0  0  0  0  0  0
    5.4496   14.5617    5.4820 C   0  0  0  0  0  0  0  0  0  0  0  0
    5.6562   14.3833    4.0134 C   0  0  0  0  0  0  0  0  0  0  0  0
    6.4108   15.4636    3.3380 C   0  0  0  0  0  0  0  0  0  0  0  0
    7.3740   14.9476    2.2843 C   0  0  0  0  0  0  0  0  0  0  0  0
    8.0221   16.0748    1.5326 C   0  0  0  0  0  0  0  0  0  0  0  0
    8.3482   13.9668    2.8596 C   0  0  0  0  0  0  0  0  0  0  0  0
    3.2894   13.5763    7.4990 C   0  0  1  0  0  0  0  0  0  0  0  0
    3.8484   13.9701    6.1475 C   0  0  0  0  0  2  0  0  0  0  0  0
    2.7800   12.1802    7.5296 C   0  0  0  0  0  0  0  0  0  0  0  0
    3.3819   11.2099    6.5945 C   0  0  0  0  0  3  0  0  0  0  0  0
    2.4363   10.2578    5.9472 C   0  0  0  0  0  0  0  0  0  0  0  0
    3.1396    9.0606    5.3388 C   0  0  2  0  0  0  0  0  0  0  0  0
    4.0964    8.4939    6.3676 C   0  0  0  0  0  0  0  0  0  0  0  0
    4.2554    6.9985    6.2131 C   0  0  2  0  0  0  0  0  0  0  0  0
    5.6427    6.7199    5.6790 C   0  0  0  0  0  0  0  0  0  0  0  0
    3.1658    6.3770    5.4089 C   0  0  0  0  0  3  0  0  0  0  0  0
    3.6759    6.0160    4.0355 C   0  0  0  0  0  0  0  0  0  0  0  0
    4.5643    7.0938    3.5486 C   0  0  0  0  0  0  0  0  0  0  0  0
    4.7027    8.4039    3.5306 C   0  0  0  0  0  0  0  0  0  0  0  0
    3.8734    9.5051    4.0920 C   0  0  2  0  0  0  0  0  0  0  0  0
    4.7186   10.7341    4.3555 C   0  0  0  0  0  3  0  0  0  0  0  0
    4.3827   11.7508    3.2968 C   0  0  0  0  0  1  0  0  0  0  0  0
  1  2  1  0
  2  3  1  0
  2  4  1  0
  4  5  1  0
  5  6  1  0
  6  7  1  0
  7  8  1  6
  7  9  1  0
  9 10  1  0
 10 11  1  0
 11 12  1  0
 12 13  1  1
 12 14  1  0
 14 15  1  0
 15 16  1  0
 16 17  1  1
 16 18  1  0
 18 19  1  0
 19 20  1  0
 20 21  1  6
 20 22  1  0
 20 23  1  0
 23 24  1  0
 24 25  1  0
 25 26  1  0
 26 27  1  0
 27 28  1  0
 27 29  2  3
 29 30  1  0
 30 31  1  0
 31 32  1  0
 32 33  2  3
 33 34  1  0
 34 35  1  0
 35 36  1  0
 36 37  1  0
 36 38  1  0
 29 39  1  0
 39 40  1  6
 39 41  1  0
 41 42  1  0
 42 43  1  0
 44 43  1  1
 44 45  1  0
 45 46  1  0
 46 47  1  6
 46 48  1  0
 48 49  1  0
 49 50  1  0
 50 51  2  3
 44 52  1  0
 52 53  1  1
 53 54  1  0
 52 51  1  0
M  RAD  8   9   2  10   2  14   2  22   3  24   2  28   3  30   2  40   3
M  RAD  4  42   2  48   2  53   2  54   2
M  END
>  <docking_score>  (2) 
19.446000000000002

$$$$
