
     RDKit          3D

 62 65  0  0  0  0  0  0  0  0999 V2000
    9.8481    4.7570   11.7724 C   0  0  0  0  0  0  0  0  0  0  0  0
    9.4166    5.6959   12.7189 O   0  0  0  0  0  0  0  0  0  0  0  0
    8.1224    6.1686   12.7299 C   0  0  0  0  0  0  0  0  0  0  0  0
    7.6551    6.7879   11.6583 C   0  0  0  0  0  0  0  0  0  0  0  0
    6.2629    7.2863   11.6949 C   0  0  0  0  0  0  0  0  0  0  0  0
    5.3671    6.7382   10.8594 C   0  0  0  0  0  0  0  0  0  0  0  0
    5.7507    5.6914    9.9490 C   0  0  0  0  0  0  0  0  0  0  0  0
    5.1029    5.4227    8.8858 N   0  0  0  0  0  0  0  0  0  0  0  0
    5.4426    4.4211    7.9847 N   0  0  0  0  0  0  0  0  0  0  0  0
    6.7801    3.8769    7.9981 C   0  0  2  0  0  0  0  0  0  0  0  0
    7.6141    4.6252    6.9913 C   0  0  0  0  0  0  0  0  0  0  0  0
    6.9113    2.4705    7.7903 C   0  0  0  0  0  0  0  0  0  0  0  0
    8.1518    1.7129    7.9930 C   0  0  0  0  0  0  0  0  0  0  0  0
    8.2431    0.2775    7.7718 C   0  0  0  0  0  0  0  0  0  0  0  0
    9.6312   -0.6655    7.9808 Cl  0  0  0  0  0  0  0  0  0  0  0  0
    6.9162   -0.2129    7.3327 C   0  0  0  0  0  0  0  0  0  0  0  0
    6.7336    0.8377    7.4634 C   0  0  0  0  0  0  0  0  0  0  0  0
    5.8849    1.5353    7.3550 C   0  0  0  0  0  0  0  0  0  0  0  0
    5.5402    0.1817    7.0312 O   0  0  0  0  0  0  0  0  0  0  0  0
    3.9754    7.2384   10.8984 C   0  0  0  0  0  0  0  0  0  0  0  0
    3.3678    6.8452   12.2258 C   0  0  0  0  0  0  0  0  0  0  0  0
    4.1916    7.5150   13.3149 C   0  0  0  0  0  0  0  0  0  0  0  0
    3.9643    8.9398   13.2453 N   0  0  0  0  0  0  0  0  0  0  0  0
    4.9771    9.8383   13.6967 C   0  0  0  0  0  0  0  0  0  0  0  0
    4.7649   11.1613   13.7746 C   0  0  0  0  0  0  0  0  0  0  0  0
    5.5862   12.2320   14.1793 N   0  0  0  0  0  0  0  0  0  0  0  0
    4.8616   13.4829   13.9265 C   0  0  0  0  0  0  0  0  0  0  0  0
    3.3934   13.0642   13.9262 C   0  0  0  0  0  0  0  0  0  0  0  0
    3.4434   11.6626   13.3752 C   0  0  1  0  0  0  0  0  0  0  0  0
    3.2314   11.6615   11.9845 O   0  0  0  0  0  0  0  0  0  0  0  0
    3.1217   12.8620   11.3160 C   0  0  0  0  0  0  0  0  0  0  0  0
    4.2269   13.4646   10.8607 C   0  0  0  0  0  0  0  0  0  0  0  0
    4.0173   14.7520   10.1528 C   0  0  1  0  0  0  0  0  0  0  0  0
    3.8589   15.8252   11.2279 C   0  0  0  0  0  0  0  0  0  0  0  0
    4.1952   15.2450   12.4534 O   0  0  0  0  0  0  0  0  0  0  0  0
    5.1091   16.0654   13.1051 C   0  0  0  0  0  0  0  0  0  0  0  0
    5.2451   15.0755    9.4294 N   0  0  0  0  0  0  0  0  0  0  0  0
    4.9313   16.0730    8.3993 C   0  0  0  0  0  0  0  0  0  0  0  0
    3.8672   15.4320    7.5471 C   0  0  0  0  0  0  0  0  0  0  0  0
    4.1638   14.5660    6.6016 C   0  0  0  0  0  0  0  0  0  0  0  0
    3.1257   13.9259    5.7537 C   0  0  1  0  0  0  0  0  0  0  0  0
    2.3511   15.0100    5.1451 N   0  0  0  0  0  0  0  0  0  0  0  0
    3.7104   13.0113    4.7302 C   0  0  0  0  0  0  0  0  0  0  0  0
    3.2559   11.6084    4.8693 C   0  0  0  0  0  0  0  0  0  0  0  0
    4.1001   10.6081    4.6468 C   0  0  0  0  0  0  0  0  0  0  0  0
    5.4989   10.8876    4.2587 C   0  0  0  0  0  0  0  0  0  0  0  0
    5.9617   10.5919    3.0603 C   0  0  0  0  0  0  0  0  0  0  0  0
    7.3428   10.9156    2.8070 N   0  0  0  0  0  0  0  0  0  0  0  0
    7.6469   12.3050    2.6205 C   0  0  0  0  0  0  0  0  0  0  0  0
    7.4376   13.2077    3.5706 C   0  0  0  0  0  0  0  0  0  0  0  0
    5.0842    9.9826    2.1051 C   0  0  0  0  0  0  0  0  0  0  0  0
    4.4324    8.8391    2.2483 C   0  0  0  0  0  0  0  0  0  0  0  0
    3.6094    8.4522    1.1246 N   0  0  0  0  0  0  0  0  0  0  0  0
    3.8260    8.9641   -0.1751 C   0  0  0  0  0  0  0  0  0  0  0  0
    3.5987    8.2449   -1.2752 C   0  0  0  0  0  0  0  0  0  0  0  0
    4.5063    7.9950    3.4323 C   0  0  0  0  0  0  0  0  0  0  0  0
    5.6802    7.6749    4.0045 C   0  0  0  0  0  0  0  0  0  0  0  0
    5.6583    6.8019    5.2195 C   0  0  2  0  0  0  0  0  0  0  0  0
    6.8970    6.2487    5.4562 O   0  0  0  0  0  0  0  0  0  0  0  0
    6.8472    4.8860    5.7119 C   0  0  0  0  0  0  0  0  0  0  0  0
    4.5876    5.7712    5.1112 C   0  0  0  0  0  0  0  0  0  0  0  0
    4.6024    4.8682    4.3241 O   0  0  0  0  0  0  0  0  0  0  0  0
  1  2  1  0
  2  3  1  0
  3  4  2  3
  4  5  1  0
  5  6  2  3
  6  7  1  0
  7  8  2  3
  8  9  1  0
  9 10  1  0
 10 11  1  6
 10 12  1  0
 12 13  1  0
 13 14  2  0
 14 15  1  0
 14 16  1  0
 16 17  2  0
 17 18  1  0
 18 19  1  0
  6 20  1  0
 20 21  1  0
 21 22  1  0
 22 23  1  0
 23 24  1  0
 24 25  2  3
 25 26  1  0
 26 27  1  0
 27 28  1  0
 25 29  1  0
 29 30  1  0
 30 31  1  0
 31 32  2  3
 32 33  1  0
 33 34  1  1
 34 35  1  0
 35 36  1  0
 33 37  1  0
 37 38  1  0
 38 39  1  0
 39 40  2  3
 40 41  1  0
 41 42  1  6
 41 43  1  0
 43 44  1  0
 44 45  2  3
 45 46  1  0
 46 47  2  3
 47 48  1  0
 48 49  1  0
 49 50  2  0
 47 51  1  0
 51 52  2  3
 52 53  1  0
 53 54  1  0
 54 55  2  0
 52 56  1  0
 56 57  2  3
 57 58  1  0
 58 59  1  0
 59 60  1  0
 58 61  1  6
 61 62  2  0
 60 11  1  0
 18 12  2  0
 19 16  1  0
 29 28  1  6
M  END
>  <docking_score>  (1) 
114.336

$$$$
