
     RDKit          3D

  9  9  0  0  0  0  0  0  0  0999 V2000
    7.1284    0.1727   -5.4685 C   0  0  0  0  0  0  0  0  0  0  0  0
    7.3045    0.7908   -6.7165 O   0  0  0  0  0  0  0  0  0  0  0  0
    6.0524    1.3413   -7.0451 C   0  0  0  0  0  3  0  0  0  0  0  0
    5.2377    0.3691   -7.6008 O   0  0  0  0  0  0  0  0  0  0  0  0
    5.8670   -0.8821   -7.4630 C   0  0  2  0  0  0  0  0  0  0  0  0
    5.6217   -1.6377   -8.7396 C   0  0  0  0  0  0  0  0  0  0  0  0
    5.2897   -1.6598   -6.3040 C   0  0  0  0  0  0  0  0  0  0  0  0
    6.3674   -1.9208   -5.2609 C   0  0  0  0  0  3  0  0  0  0  0  0
    7.5138   -1.1697   -5.5320 O   0  0  0  0  0  0  0  0  0  0  0  0
  1  2  1  0
  2  3  1  0
  3  4  1  0
  4  5  1  0
  5  6  1  6
  5  7  1  0
  7  8  1  0
  8  9  1  0
  9  1  1  0
M  RAD  2   3   2   8   2
M  END
>  <docking_score>  (1) 
-3.7250000000000001

$$$$

     RDKit          3D

  9  9  0  0  0  0  0  0  0  0999 V2000
    6.7716    0.8767   -6.5964 C   0  0  0  0  0  0  0  0  0  0  0  0
    6.5646    0.4132   -5.2877 O   0  0  0  0  0  0  0  0  0  0  0  0
    7.4999   -0.6209   -5.1011 C   0  0  0  0  0  3  0  0  0  0  0  0
    7.0139   -1.8024   -5.6353 O   0  0  0  0  0  0  0  0  0  0  0  0
    5.8401   -1.5229   -6.3597 C   0  0  2  0  0  0  0  0  0  0  0  0
    4.8775   -2.6440   -6.0816 C   0  0  0  0  0  0  0  0  0  0  0  0
    6.1155   -1.4582   -7.8434 C   0  0  0  0  0  0  0  0  0  0  0  0
    5.7959   -0.0677   -8.3744 C   0  0  0  0  0  3  0  0  0  0  0  0
    5.5789    0.8277   -7.3241 O   0  0  0  0  0  0  0  0  0  0  0  0
  1  2  1  0
  2  3  1  0
  3  4  1  0
  4  5  1  0
  5  6  1  6
  5  7  1  0
  7  8  1  0
  8  9  1  0
  9  1  1  0
M  RAD  2   3   2   8   2
M  END
>  <docking_score>  (2) 
-3.7149999999999999

$$$$

     RDKit          3D

  9  9  0  0  0  0  0  0  0  0999 V2000
    5.6218   -0.9521   -8.4326 C   0  0  0  0  0  0  0  0  0  0  0  0
    6.0185   -2.1676   -7.8532 O   0  0  0  0  0  0  0  0  0  0  0  0
    5.0954   -2.4126   -6.8204 C   0  0  0  0  0  3  0  0  0  0  0  0
    5.4581   -1.7103   -5.6834 O   0  0  0  0  0  0  0  0  0  0  0  0
    6.5110   -0.8349   -6.0083 C   0  0  2  0  0  0  0  0  0  0  0  0
    7.4735   -0.8611   -4.8534 C   0  0  0  0  0  0  0  0  0  0  0  0
    6.0081    0.5755   -6.2068 C   0  0  0  0  0  0  0  0  0  0  0  0
    6.2793    1.0314   -7.6336 C   0  0  0  0  0  3  0  0  0  0  0  0
    6.6836   -0.0427   -8.4303 O   0  0  0  0  0  0  0  0  0  0  0  0
  1  2  1  0
  2  3  1  0
  3  4  1  0
  4  5  1  0
  5  6  1  1
  5  7  1  0
  7  8  1  0
  8  9  1  0
  9  1  1  0
M  RAD  2   3   2   8   2
M  END
>  <docking_score>  (3) 
-3.6059999999999999

$$$$
