
     RDKit          3D

 80 85  0  0  0  0  0  0  0  0999 V2000
    3.3840   11.1360    9.7398 C   0  0  2  0  0  0  0  0  0  0  0  0
    3.1268   12.5642    9.5811 C   0  0  0  0  0  3  0  0  0  0  0  0
    3.1140   13.1094    8.2064 C   0  0  0  0  0  0  0  0  0  0  0  0
    4.4719   13.7129    7.8627 C   0  0  0  0  0  0  0  0  0  0  0  0
    4.7863   14.6842    8.9361 C   0  0  0  0  0  0  0  0  0  0  0  0
    5.7609   15.3921    8.8375 O   0  0  0  0  0  0  0  0  0  0  0  0
    3.9286   14.8107   10.1377 C   0  0  0  0  0  0  0  0  0  0  0  0
    3.4823   13.4750   10.6686 C   0  0  2  0  0  0  0  0  0  0  0  0
    4.4829   12.9919   11.6545 C   0  0  0  0  0  0  0  0  0  0  0  0
    4.2534   11.5518   12.0524 C   0  0  0  0  0  0  0  0  0  0  0  0
    4.3350   10.7225   10.7930 C   0  0  2  0  0  0  0  0  0  0  0  0
    5.7597   10.5598   10.3122 C   0  0  0  0  0  0  0  0  0  0  0  0
    6.7561   10.6426   11.4443 C   0  0  0  0  0  0  0  0  0  0  0  0
    7.7742   11.7354   11.2456 C   0  0  0  0  0  3  0  0  0  0  0  0
    8.0057   12.4114   12.4061 F   0  0  0  0  0  0  0  0  0  0  0  0
    9.0069   11.2773   10.5387 C   0  0  0  0  0  3  0  0  0  0  0  0
    9.6028   12.4482    9.7906 C   0  0  0  0  0  0  0  0  0  0  0  0
   11.0995   12.4081    9.7673 C   0  0  0  0  0  0  0  0  0  0  0  0
   11.6111   11.4442    8.7174 C   0  0  0  0  0  0  0  0  0  0  0  0
   11.5528   10.1416    9.2179 O   0  0  0  0  0  0  0  0  0  0  0  0
   12.6162    9.2761    9.1777 C   0  0  0  0  0  0  0  0  0  0  0  0
   12.7129    8.1145    9.6920 C   0  0  0  0  0  0  0  0  0  0  0  0
   11.8317    7.2798   10.4685 C   0  0  0  0  0  0  0  0  0  0  0  0
   11.1256    7.9133   11.4549 O   0  0  0  0  0  0  0  0  0  0  0  0
   11.9171    8.1737   12.5673 C   0  0  0  0  0  3  0  0  0  0  0  0
   13.2361    7.4461   12.4966 C   0  0  0  0  0  2  0  0  0  0  0  0
   13.9564    7.6298   13.8371 C   0  0  0  0  0  0  0  0  0  0  0  0
    8.6228   10.2317    9.5140 C   0  0  0  0  0  0  0  0  0  0  0  0
    8.1984   10.9586    8.2547 C   0  0  0  0  0  0  0  0  0  0  0  0
    7.4040   10.0814    7.3323 C   0  0  0  0  0  3  0  0  0  0  0  0
    7.0995   10.8568    6.0776 C   0  0  0  0  0  3  0  0  0  0  0  0
    7.9129   12.1569    6.0335 C   0  0  2  0  0  0  0  0  0  0  0  0
    6.9448   13.2093    5.4774 C   0  0  0  0  0  0  0  0  0  0  0  0
    6.6513   12.6580    4.1039 C   0  0  0  0  0  0  0  0  0  0  0  0
    7.8344   11.7971    3.7165 C   0  0  0  0  0  0  0  0  0  0  0  0
    8.8453   11.9982    4.8256 C   0  0  1  0  0  0  0  0  0  0  0  0
    9.6662   13.2497    4.6102 C   0  0  1  0  0  0  0  0  0  0  0  0
   10.9114   13.1492    5.4673 C   0  0  0  0  0  0  0  0  0  0  0  0
   10.1000   13.4012    3.1738 C   0  0  1  0  0  0  0  0  0  0  0  0
   11.2107   12.4903    2.7795 C   0  0  0  0  0  0  0  0  0  0  0  0
   11.8701   12.9264    1.6566 O   0  0  0  0  0  0  0  0  0  0  0  0
   12.4154   14.1977    1.7797 C   0  0  0  0  0  3  0  0  0  0  0  0
   11.4925   15.2619    1.2284 C   0  0  0  0  0  2  0  0  0  0  0  0
   10.3009   14.6219    0.5059 C   0  0  0  0  0  3  0  0  0  0  0  0
    9.0994   14.7945    1.4346 C   0  0  0  0  0  3  0  0  0  0  0  0
    8.9723   13.4774    2.2061 C   0  0  1  0  0  0  0  0  0  0  0  0
    8.9347   12.4702    1.2734 O   0  0  0  0  0  0  0  0  0  0  0  0
    8.1259   12.8826    0.2146 C   0  0  0  0  0  2  0  0  0  0  0  0
    6.6941   12.5932    0.6139 C   0  0  0  0  0  0  0  0  0  0  0  0
    6.2113   11.2561    0.1622 C   0  0  0  0  0  0  0  0  0  0  0  0
    6.0863   10.2403    1.2507 C   0  0  0  0  0  3  0  0  0  0  0  0
    4.9404   10.3621    2.0083 O   0  0  0  0  0  0  0  0  0  0  0  0
    5.1150    9.7432    3.2621 C   0  0  0  0  0  0  0  0  0  0  0  0
    3.8224    9.6258    4.0075 C   0  0  2  0  0  0  0  0  0  0  0  0
    2.6958   10.1814    3.1908 C   0  0  0  0  0  0  0  0  0  0  0  0
    2.8680   11.6864    3.3899 C   0  0  0  0  0  0  0  0  0  0  0  0
    3.4248   11.8298    4.7863 C   0  0  0  0  0  0  0  0  0  0  0  0
    3.8230   10.4541    5.2481 C   0  0  1  0  0  0  0  0  0  0  0  0
    3.0039    9.9670    6.2521 O   0  0  0  0  0  0  0  0  0  0  0  0
    2.9432   10.9066    7.2769 C   0  0  0  0  0  0  0  0  0  0  0  0
    3.6304   10.3625    8.4861 C   0  0  0  0  0  3  0  0  0  0  0  0
    3.2282    9.0279    8.6539 O   0  0  0  0  0  0  0  0  0  0  0  0
    3.5220    8.6207    9.9542 C   0  0  0  0  0  0  0  0  0  0  0  0
    3.5729    7.1335   10.1014 C   0  0  0  0  0  3  0  0  0  0  0  0
    3.2995    6.7761   11.5411 C   0  0  0  0  0  3  0  0  0  0  0  0
    4.4311    7.2435   12.4028 C   0  0  0  0  0  0  0  0  0  0  0  0
    4.0846    7.1763   13.8767 C   0  0  0  0  0  3  0  0  0  0  0  0
    3.2456    8.3340   14.3132 C   0  0  0  0  0  0  0  0  0  0  0  0
    2.4171    8.0342   15.5320 C   0  0  0  0  0  3  0  0  0  0  0  0
    3.2490    7.8641   16.7813 C   0  0  0  0  0  0  0  0  0  0  0  0
    2.2787    7.9017   17.9588 C   0  0  0  0  0  3  0  0  0  0  0  0
    2.9461    7.3697   19.2249 C   0  0  0  0  0  3  0  0  0  0  0  0
    3.1673    8.5600   20.1437 C   0  0  0  0  0  3  0  0  0  0  0  0
    4.6306    8.9413   20.0345 C   0  0  0  0  0  0  0  0  0  0  0  0
    5.0280    9.1289   18.5832 C   0  0  0  0  0  3  0  0  0  0  0  0
    6.1728   10.0836   18.4275 C   0  0  0  0  0  3  0  0  0  0  0  0
    5.6563   11.3328   18.0921 O   0  0  0  0  0  0  0  0  0  0  0  0
    4.6184   11.1780   17.1706 C   0  0  0  0  0  3  0  0  0  0  0  0
    3.7618   12.4128   17.1828 C   0  0  0  0  0  3  0  0  0  0  0  0
    4.6130   13.5786   17.6632 C   0  0  0  0  0  0  0  0  0  0  0  0
  1  2  1  0
  2  3  1  0
  3  4  1  0
  4  5  1  0
  5  6  2  0
  5  7  1  0
  8  7  1  6
  8  9  1  0
  9 10  1  0
 11 10  1  1
 11 12  1  0
 12 13  1  0
 13 14  1  0
 14 15  1  0
 14 16  1  0
 16 17  1  0
 17 18  1  0
 18 19  1  0
 19 20  1  0
 20 21  1  0
 21 22  2  3
 22 23  1  0
 23 24  1  0
 24 25  1  0
 25 26  1  0
 26 27  1  0
 16 28  1  0
 28 29  1  0
 29 30  1  0
 30 31  1  0
 32 31  1  6
 32 33  1  0
 33 34  1  0
 34 35  1  0
 36 35  1  6
 36 37  1  0
 37 38  1  1
 37 39  1  0
 39 40  1  6
 40 41  1  0
 41 42  1  0
 42 43  1  0
 43 44  1  0
 44 45  1  0
 46 45  1  6
 46 47  1  0
 47 48  1  0
 48 49  1  0
 49 50  1  0
 50 51  1  0
 51 52  1  0
 52 53  1  0
 54 53  1  6
 54 55  1  0
 55 56  1  0
 56 57  1  0
 58 57  1  6
 58 59  1  0
 59 60  1  0
 60 61  1  0
 61 62  1  0
 62 63  1  0
 63 64  1  0
 64 65  1  0
 65 66  1  0
 66 67  1  0
 67 68  1  0
 68 69  1  0
 69 70  1  0
 70 71  1  0
 71 72  1  0
 72 73  1  0
 73 74  1  0
 74 75  1  0
 75 76  1  0
 76 77  1  0
 77 78  1  0
 78 79  1  0
 79 80  1  0
 11  1  1  0
  1 61  1  6
  8  2  1  0
 36 32  1  0
 46 39  1  0
 58 54  1  0
M  RAD  8   2   2  14   2  16   2  25   2  26   3  30   2  31   2  42   2
M  RAD  8  43   3  44   2  45   2  48   3  51   2  61   2  64   2  65   2
M  RAD  8  67   2  69   2  71   2  72   2  73   2  75   2  76   2  78   2
M  RAD  1  79   2
M  END
>  <docking_score>  (1) 
86.064999999999998

$$$$
