
     RDKit          3D

 26 26  0  0  0  0  0  0  0  0999 V2000
   17.2415   -2.2705   -8.5554 C   0  0  0  0  0  0  0  0  0  0  0  0
   15.9840   -2.2392   -7.7522 C   0  0  0  0  0  3  0  0  0  0  0  0
   16.1486   -1.6467   -6.3903 C   0  0  0  0  0  0  0  0  0  0  0  0
   14.8107   -1.2512   -5.7761 C   0  0  2  0  0  0  0  0  0  0  0  0
   14.6919    0.1312   -5.7560 O   0  0  0  0  0  0  0  0  0  0  0  0
   14.6829   -1.7717   -4.3644 C   0  0  2  0  0  0  0  0  0  0  0  0
   14.4525   -0.7007   -3.5140 O   0  0  0  0  0  0  0  0  0  0  0  0
   15.9333   -2.4876   -3.9085 C   0  0  1  0  0  0  0  0  0  0  0  0
   16.5847   -1.6859   -2.9829 O   0  0  0  0  0  0  0  0  0  0  0  0
   15.6702   -3.7374   -3.3986 O   0  0  0  0  0  0  0  0  0  0  0  0
   16.5349   -3.9898   -2.3475 C   0  0  0  0  0  3  0  0  0  0  0  0
   17.1624   -5.2061   -2.5237 O   0  0  0  0  0  0  0  0  0  0  0  0
   18.1997   -5.1218   -3.3993 N   0  0  0  0  0  0  0  0  0  0  0  0
   18.0264   -6.1042   -4.4446 C   0  0  1  0  0  0  0  0  0  0  0  0
   17.2366   -5.5663   -5.5938 C   0  0  0  0  0  0  0  0  0  0  0  0
   17.6680   -6.2438   -6.8624 C   0  0  0  0  0  0  0  0  0  0  0  0
   16.6353   -6.2011   -7.8260 O   0  0  0  0  0  0  0  0  0  0  0  0
   17.9299   -7.6128   -6.6678 O   0  0  0  0  0  0  0  0  0  0  0  0
   18.7814   -5.6907   -7.4436 O   0  0  0  0  0  0  0  0  0  0  0  0
   19.5202   -4.8802   -6.6181 C   0  0  1  0  0  0  0  0  0  0  0  0
   18.8014   -3.8396   -6.0525 O   0  0  0  0  0  0  0  0  0  0  0  0
   20.2290   -5.6384   -5.5210 C   0  0  2  0  0  0  0  0  0  0  0  0
   21.3569   -6.2852   -6.0350 O   0  0  0  0  0  0  0  0  0  0  0  0
   19.3508   -6.6585   -4.8642 C   0  0  1  0  0  0  0  0  0  0  0  0
   19.9913   -7.1588   -3.7497 O   0  0  0  0  0  0  0  0  0  0  0  0
   20.1028   -8.4703   -3.9086 O   0  0  0  0  0  0  0  0  0  0  0  0
  1  2  1  0
  2  3  1  0
  3  4  1  0
  4  5  1  1
  4  6  1  0
  6  7  1  1
  6  8  1  0
  8  9  1  1
  8 10  1  0
 10 11  1  0
 11 12  1  0
 12 13  1  0
 14 13  1  1
 14 15  1  0
 15 16  1  0
 16 17  1  0
 16 18  1  0
 16 19  1  0
 19 20  1  0
 20 21  1  1
 20 22  1  0
 22 23  1  6
 22 24  1  0
 24 25  1  1
 25 26  1  0
 24 14  1  0
M  RAD  2   2   2  11   2
M  END
>  <docking_score>  (1) 
-4.2359999999999998

$$$$

     RDKit          3D

 26 26  0  0  0  0  0  0  0  0999 V2000
   15.2969   -3.0934   -7.2226 C   0  0  0  0  0  0  0  0  0  0  0  0
   16.3155   -3.6890   -8.1364 C   0  0  0  0  0  3  0  0  0  0  0  0
   17.4111   -4.4194   -7.4299 C   0  0  0  0  0  0  0  0  0  0  0  0
   17.5368   -5.8605   -7.9107 C   0  0  2  0  0  0  0  0  0  0  0  0
   16.2791   -6.3746   -8.1924 O   0  0  0  0  0  0  0  0  0  0  0  0
   18.1953   -6.7292   -6.8658 C   0  0  2  0  0  0  0  0  0  0  0  0
   18.9218   -7.7221   -7.5056 O   0  0  0  0  0  0  0  0  0  0  0  0
   17.1841   -7.3846   -5.9538 C   0  0  1  0  0  0  0  0  0  0  0  0
   17.3054   -8.7603   -6.0817 O   0  0  0  0  0  0  0  0  0  0  0  0
   17.3163   -6.9848   -4.6447 O   0  0  0  0  0  0  0  0  0  0  0  0
   16.1803   -6.2906   -4.2654 C   0  0  0  0  0  3  0  0  0  0  0  0
   16.4929   -5.3424   -3.3130 O   0  0  0  0  0  0  0  0  0  0  0  0
   16.0795   -4.0989   -3.6773 N   0  0  0  0  0  0  0  0  0  0  0  0
   16.7549   -3.1120   -2.8664 C   0  0  1  0  0  0  0  0  0  0  0  0
   18.0073   -3.6512   -2.2546 C   0  0  0  0  0  0  0  0  0  0  0  0
   18.9980   -2.5379   -2.0709 C   0  0  0  0  0  0  0  0  0  0  0  0
   19.9140   -2.8511   -1.0415 O   0  0  0  0  0  0  0  0  0  0  0  0
   18.3795   -1.3428   -1.6587 O   0  0  0  0  0  0  0  0  0  0  0  0
   19.7368   -2.2532   -3.1918 O   0  0  0  0  0  0  0  0  0  0  0  0
   19.2208   -2.7483   -4.3635 C   0  0  1  0  0  0  0  0  0  0  0  0
   19.0093   -4.1174   -4.3569 O   0  0  0  0  0  0  0  0  0  0  0  0
   17.9466   -2.0583   -4.7891 C   0  0  2  0  0  0  0  0  0  0  0  0
   18.2391   -0.8101   -5.3470 O   0  0  0  0  0  0  0  0  0  0  0  0
   16.9895   -1.8621   -3.6540 C   0  0  1  0  0  0  0  0  0  0  0  0
   15.7804   -1.4216   -4.1505 O   0  0  0  0  0  0  0  0  0  0  0  0
   15.0008   -1.1439   -3.1146 O   0  0  0  0  0  0  0  0  0  0  0  0
  1  2  1  0
  2  3  1  0
  3  4  1  0
  4  5  1  1
  4  6  1  0
  6  7  1  6
  6  8  1  0
  8  9  1  1
  8 10  1  0
 10 11  1  0
 11 12  1  0
 12 13  1  0
 14 13  1  6
 14 15  1  0
 15 16  1  0
 16 17  1  0
 16 18  1  0
 16 19  1  0
 19 20  1  0
 20 21  1  1
 20 22  1  0
 22 23  1  1
 22 24  1  0
 24 25  1  6
 25 26  1  0
 24 14  1  0
M  RAD  2   2   2  11   2
M  END
>  <docking_score>  (2) 
-3.7690000000000001

$$$$

     RDKit          3D

 26 26  0  0  0  0  0  0  0  0999 V2000
   19.9617   -4.2680   -4.9520 C   0  0  0  0  0  0  0  0  0  0  0  0
   20.7321   -5.4611   -4.4932 C   0  0  0  0  0  3  0  0  0  0  0  0
   19.8848   -6.5375   -3.8964 C   0  0  0  0  0  0  0  0  0  0  0  0
   18.4120   -6.3639   -4.2488 C   0  0  2  0  0  0  0  0  0  0  0  0
   17.6719   -6.1598   -3.0929 O   0  0  0  0  0  0  0  0  0  0  0  0
   17.8743   -7.5809   -4.9630 C   0  0  2  0  0  0  0  0  0  0  0  0
   18.8185   -8.0103   -5.8835 O   0  0  0  0  0  0  0  0  0  0  0  0
   16.5867   -7.2852   -5.6967 C   0  0  1  0  0  0  0  0  0  0  0  0
   15.5285   -7.7504   -4.9303 O   0  0  0  0  0  0  0  0  0  0  0  0
   16.4448   -5.9509   -5.9978 O   0  0  0  0  0  0  0  0  0  0  0  0
   15.1781   -5.7341   -6.5124 C   0  0  0  0  0  3  0  0  0  0  0  0
   14.4232   -4.9879   -5.6308 O   0  0  0  0  0  0  0  0  0  0  0  0
   14.5377   -3.6531   -5.8653 N   0  0  0  0  0  0  0  0  0  0  0  0
   14.9040   -2.9804   -4.6401 C   0  0  1  0  0  0  0  0  0  0  0  0
   16.2905   -3.3274   -4.2032 C   0  0  0  0  0  0  0  0  0  0  0  0
   16.8855   -2.1722   -3.4509 C   0  0  0  0  0  0  0  0  0  0  0  0
   17.9017   -2.6180   -2.5760 O   0  0  0  0  0  0  0  0  0  0  0  0
   15.9411   -1.5389   -2.6216 O   0  0  0  0  0  0  0  0  0  0  0  0
   17.4417   -1.2071   -4.2524 O   0  0  0  0  0  0  0  0  0  0  0  0
   17.0534   -1.2562   -5.5680 C   0  0  1  0  0  0  0  0  0  0  0  0
   17.2866   -2.4751   -6.1836 O   0  0  0  0  0  0  0  0  0  0  0  0
   15.6076   -0.8722   -5.7749 C   0  0  2  0  0  0  0  0  0  0  0  0
   15.4629    0.5162   -5.6964 O   0  0  0  0  0  0  0  0  0  0  0  0
   14.6931   -1.5054   -4.7720 C   0  0  1  0  0  0  0  0  0  0  0  0
   13.3844   -1.2798   -5.1449 O   0  0  0  0  0  0  0  0  0  0  0  0
   12.8668   -0.4162   -4.2823 O   0  0  0  0  0  0  0  0  0  0  0  0
  1  2  1  0
  2  3  1  0
  3  4  1  0
  4  5  1  1
  4  6  1  0
  6  7  1  6
  6  8  1  0
  8  9  1  1
  8 10  1  0
 10 11  1  0
 11 12  1  0
 12 13  1  0
 14 13  1  6
 14 15  1  0
 15 16  1  0
 16 17  1  0
 16 18  1  0
 16 19  1  0
 19 20  1  0
 20 21  1  1
 20 22  1  0
 22 23  1  1
 22 24  1  0
 24 25  1  6
 25 26  1  0
 24 14  1  0
M  RAD  2   2   2  11   2
M  END
>  <docking_score>  (3) 
-3.6669999999999998

$$$$
