
     RDKit          3D

 29 29  0  0  0  0  0  0  0  0999 V2000
   16.5646   -4.1751   -1.5836 C   0  0  0  0  0  0  0  0  0  0  0  0
   17.5931   -3.1444   -1.8072 C   0  0  0  0  0  0  0  0  0  0  0  0
   18.6068   -3.4650   -2.8638 C   0  0  0  0  0  0  0  0  0  0  0  0
   17.1354   -1.7316   -1.9353 C   0  0  0  0  0  0  0  0  0  0  0  0
   15.8080   -1.6745   -2.6317 C   0  0  0  0  0  0  0  0  0  0  0  0
   16.0000   -1.2819   -4.0674 C   0  0  0  0  0  0  0  0  0  0  0  0
   14.7026   -1.4577   -4.8016 C   0  0  1  0  0  0  0  0  0  0  0  0
   13.6770   -0.4348   -4.4644 C   0  0  0  0  0  0  0  0  0  0  0  0
   15.0201   -1.3322   -6.2936 C   0  0  0  0  0  3  0  0  0  0  0  0
   15.3794   -2.7026   -6.8445 C   0  0  0  0  0  0  0  0  0  0  0  0
   16.7576   -3.1338   -6.3577 C   0  0  1  0  0  0  0  0  0  0  0  0
   16.7861   -4.5986   -6.0185 C   0  0  0  0  0  3  0  0  0  0  0  0
   15.8372   -4.9372   -4.8860 C   0  0  0  0  0  0  0  0  0  0  0  0
   16.5684   -5.4843   -7.2177 C   0  0  0  0  0  3  0  0  0  0  0  0
   15.9760   -6.7971   -6.7138 C   0  0  0  0  0  0  0  0  0  0  0  0
   17.1071   -7.6292   -6.1722 C   0  0  2  0  0  0  0  0  0  0  0  0
   17.6307   -7.1111   -4.9189 N   0  0  0  0  0  1  0  0  0  0  0  0
   18.2719   -7.7040   -7.1549 C   0  0  0  0  0  0  0  0  0  0  0  0
   19.2398   -8.7192   -6.6012 C   0  0  0  0  0  0  0  0  0  0  0  0
   20.6689   -8.3751   -6.8138 C   0  0  2  0  0  0  0  0  0  0  0  0
   21.2472   -9.3740   -7.6177 O   0  0  0  0  0  0  0  0  0  0  0  0
   21.3785   -8.4689   -5.4682 C   0  0  0  0  0  0  0  0  0  0  0  0
   20.9098   -7.0590   -7.4756 C   0  0  0  0  0  0  0  0  0  0  0  0
   19.9296   -5.9964   -7.1181 C   0  0  0  0  0  0  0  0  0  0  0  0
   20.4856   -4.8969   -6.4857 O   0  0  0  0  0  0  0  0  0  0  0  0
   19.4108   -4.0766   -6.0944 C   0  0  0  0  0  0  0  0  0  0  0  0
   18.9636   -3.3555   -7.3311 C   0  0  0  0  0  0  0  0  0  0  0  0
   17.7150   -2.9041   -7.4713 C   0  0  0  0  0  0  0  0  0  0  0  0
   17.3298   -2.1945   -8.7242 C   0  0  0  0  0  0  0  0  0  0  0  0
  1  2  1  0
  2  3  1  0
  2  4  1  0
  4  5  1  0
  5  6  1  0
  6  7  1  0
  7  8  1  1
  7  9  1  0
  9 10  1  0
 11 10  1  6
 11 12  1  0
 12 13  1  0
 12 14  1  0
 14 15  1  0
 15 16  1  0
 16 17  1  1
 16 18  1  0
 18 19  1  0
 19 20  1  0
 20 21  1  0
 20 22  1  1
 20 23  1  0
 23 24  1  0
 24 25  1  0
 25 26  1  0
 26 27  1  0
 27 28  2  3
 28 29  1  0
 28 11  1  0
M  CHG  1  17   1
M  RAD  4   9   2  12   2  14   2  17   2
M  END
>  <docking_score>  (1) 
-4.5090000000000003

$$$$

     RDKit          3D

 29 29  0  0  0  0  0  0  0  0999 V2000
    4.9455    5.8055    4.7281 C   0  0  0  0  0  0  0  0  0  0  0  0
    3.4821    5.7014    4.8619 C   0  0  0  0  0  0  0  0  0  0  0  0
    2.9945    4.6170    5.7746 C   0  0  0  0  0  0  0  0  0  0  0  0
    2.7210    6.9615    5.0963 C   0  0  0  0  0  0  0  0  0  0  0  0
    2.2576    7.0336    6.5212 C   0  0  0  0  0  0  0  0  0  0  0  0
    2.5288    8.4003    7.0786 C   0  0  0  0  0  0  0  0  0  0  0  0
    3.9585    8.4706    7.5309 C   0  0  1  0  0  0  0  0  0  0  0  0
    4.8474    9.2175    6.6015 C   0  0  0  0  0  0  0  0  0  0  0  0
    3.9599    9.2033    8.8747 C   0  0  0  0  0  3  0  0  0  0  0  0
    2.5397    9.2609    9.4134 C   0  0  0  0  0  0  0  0  0  0  0  0
    2.3997   10.3749   10.4437 C   0  0  1  0  0  0  0  0  0  0  0  0
    3.5540   10.3791   11.4075 C   0  0  0  0  0  3  0  0  0  0  0  0
    3.6261    9.0963   12.2119 C   0  0  0  0  0  0  0  0  0  0  0  0
    4.8694   10.7035   10.7483 C   0  0  0  0  0  3  0  0  0  0  0  0
    5.9707   10.0617   11.5871 C   0  0  0  0  0  0  0  0  0  0  0  0
    6.2223   10.9568   12.7706 C   0  0  2  0  0  0  0  0  0  0  0  0
    5.1382   10.9204   13.7383 N   0  0  0  0  0  1  0  0  0  0  0  0
    6.4051   12.4114   12.3476 C   0  0  0  0  0  0  0  0  0  0  0  0
    6.8527   13.1651   13.5746 C   0  0  0  0  0  0  0  0  0  0  0  0
    6.2940   14.5370   13.6824 C   0  0  2  0  0  0  0  0  0  0  0  0
    7.3626   15.4512   13.6509 O   0  0  0  0  0  0  0  0  0  0  0  0
    5.6705   14.6816   15.0656 C   0  0  0  0  0  0  0  0  0  0  0  0
    5.3363   14.9155   12.6017 C   0  0  0  0  0  0  0  0  0  0  0  0
    4.4853   13.7977   12.1077 C   0  0  0  0  0  0  0  0  0  0  0  0
    3.1270   13.9863   12.3017 O   0  0  0  0  0  0  0  0  0  0  0  0
    2.4995   12.7863   11.9178 C   0  0  0  0  0  0  0  0  0  0  0  0
    2.4617   12.7955   10.4185 C   0  0  0  0  0  0  0  0  0  0  0  0
    2.4145   11.6663    9.7077 C   0  0  0  0  0  0  0  0  0  0  0  0
    2.3787   11.7395    8.2194 C   0  0  0  0  0  0  0  0  0  0  0  0
  1  2  1  0
  2  3  1  0
  2  4  1  0
  4  5  1  0
  5  6  1  0
  6  7  1  0
  7  8  1  6
  7  9  1  0
  9 10  1  0
 11 10  1  6
 11 12  1  0
 12 13  1  0
 12 14  1  0
 14 15  1  0
 15 16  1  0
 16 17  1  1
 16 18  1  0
 18 19  1  0
 19 20  1  0
 20 21  1  0
 20 22  1  1
 20 23  1  0
 23 24  1  0
 24 25  1  0
 25 26  1  0
 26 27  1  0
 27 28  2  3
 28 29  1  0
 28 11  1  0
M  CHG  1  17   1
M  RAD  4   9   2  12   2  14   2  17   2
M  END
>  <docking_score>  (2) 
-2.3490000000000002

$$$$

     RDKit          3D

 29 29  0  0  0  0  0  0  0  0999 V2000
    7.2768   13.3901    1.8327 C   0  0  0  0  0  0  0  0  0  0  0  0
    7.5558   13.4165    3.2790 C   0  0  0  0  0  0  0  0  0  0  0  0
    8.9618   13.0742    3.6698 C   0  0  0  0  0  0  0  0  0  0  0  0
    7.0722   14.5957    4.0519 C   0  0  0  0  0  0  0  0  0  0  0  0
    5.6728   14.9489    3.6433 C   0  0  0  0  0  0  0  0  0  0  0  0
    4.7407   14.7739    4.8064 C   0  0  0  0  0  0  0  0  0  0  0  0
    3.5261   14.0179    4.3519 C   0  0  1  0  0  0  0  0  0  0  0  0
    3.6902   13.3533    3.0316 C   0  0  0  0  0  0  0  0  0  0  0  0
    3.2671   12.9306    5.3975 C   0  0  0  0  0  3  0  0  0  0  0  0
    4.3372   11.8576    5.2775 C   0  0  0  0  0  0  0  0  0  0  0  0
    4.6277   11.2330    6.6368 C   0  0  1  0  0  0  0  0  0  0  0  0
    4.8096   12.2846    7.6963 C   0  0  0  0  0  3  0  0  0  0  0  0
    5.9958   13.1827    7.4064 C   0  0  0  0  0  0  0  0  0  0  0  0
    3.5557   13.0773    7.9594 C   0  0  0  0  0  3  0  0  0  0  0  0
    3.9821   14.4422    8.4918 C   0  0  0  0  0  0  0  0  0  0  0  0
    4.3120   14.2793    9.9512 C   0  0  2  0  0  0  0  0  0  0  0  0
    5.5490   13.5464   10.1653 N   0  0  0  0  0  1  0  0  0  0  0  0
    3.2085   13.5362   10.6984 C   0  0  0  0  0  0  0  0  0  0  0  0
    3.5488   13.6185   12.1651 C   0  0  0  0  0  0  0  0  0  0  0  0
    3.2220   12.3908   12.9344 C   0  0  2  0  0  0  0  0  0  0  0  0
    2.2627   12.7238   13.9079 O   0  0  0  0  0  0  0  0  0  0  0  0
    4.4676   11.9782   13.7097 C   0  0  0  0  0  0  0  0  0  0  0  0
    2.6771   11.2630   12.1223 C   0  0  0  0  0  0  0  0  0  0  0  0
    3.2441   11.1569   10.7494 C   0  0  0  0  0  0  0  0  0  0  0  0
    3.9235    9.9754   10.5027 O   0  0  0  0  0  0  0  0  0  0  0  0
    4.5090   10.1110    9.2299 C   0  0  0  0  0  0  0  0  0  0  0  0
    3.4076    9.8863    8.2371 C   0  0  0  0  0  0  0  0  0  0  0  0
    3.4481   10.4086    7.0091 C   0  0  0  0  0  0  0  0  0  0  0  0
    2.3230   10.1500    6.0664 C   0  0  0  0  0  0  0  0  0  0  0  0
  1  2  1  0
  2  3  1  0
  2  4  1  0
  4  5  1  0
  5  6  1  0
  6  7  1  0
  7  8  1  6
  7  9  1  0
  9 10  1  0
 11 10  1  6
 11 12  1  0
 12 13  1  0
 12 14  1  0
 14 15  1  0
 15 16  1  0
 16 17  1  6
 16 18  1  0
 18 19  1  0
 19 20  1  0
 20 21  1  0
 20 22  1  1
 20 23  1  0
 23 24  1  0
 24 25  1  0
 25 26  1  0
 26 27  1  0
 27 28  2  3
 28 29  1  0
 28 11  1  0
M  CHG  1  17   1
M  RAD  4   9   2  12   2  14   2  17   2
M  END
>  <docking_score>  (3) 
-1.732

$$$$
