
     RDKit          3D

 20 19  0  0  0  0  0  0  0  0999 V2000
   13.1705   -0.4425   -4.9752 O   0  0  0  0  0  0  0  0  0  0  0  0
   14.1960   -0.4047   -4.0212 C   0  0  0  0  0  0  0  0  0  0  0  0
   15.0574   -1.6629   -4.1640 C   0  0  0  0  0  3  0  0  0  0  0  0
   14.3580   -2.5496   -5.0485 N   0  0  0  0  0  0  0  0  0  0  0  0
   15.1899   -3.6153   -5.5555 C   0  0  1  0  0  0  0  0  0  0  0  0
   15.5529   -3.3114   -6.9876 C   0  0  0  0  0  0  0  0  0  0  0  0
   15.0849   -2.0642   -7.3724 O   0  0  0  0  0  0  0  0  0  0  0  0
   16.4367   -3.6656   -4.6873 C   0  0  1  0  0  0  0  0  0  0  0  0
   16.3636   -4.6568   -3.7407 O   0  0  0  0  0  0  0  0  0  0  0  0
   17.6896   -3.7568   -5.5292 C   0  0  2  0  0  0  0  0  0  0  0  0
   18.4371   -4.8803   -5.2386 O   0  0  0  0  0  0  0  0  0  0  0  0
   18.5348   -2.5056   -5.3528 C   0  0  0  0  0  3  0  0  0  0  0  0
   19.9513   -2.8850   -4.9802 C   0  0  0  0  0  3  0  0  0  0  0  0
   20.4419   -2.1359   -3.9319 O   0  0  0  0  0  0  0  0  0  0  0  0
   19.4871   -1.2289   -3.5241 C   0  0  2  0  0  0  0  0  0  0  0  0
   19.8907    0.0758   -3.7952 O   0  0  0  0  0  0  0  0  0  0  0  0
   19.1802   -1.3553   -2.0397 C   0  0  1  0  0  0  0  0  0  0  0  0
   17.7970   -1.3104   -1.8618 O   0  0  0  0  0  0  0  0  0  0  0  0
   19.6659   -2.6895   -1.5437 C   0  0  0  0  0  0  0  0  0  0  0  0
   18.6631   -3.6474   -1.7092 O   0  0  0  0  0  0  0  0  0  0  0  0
  1  2  1  0
  2  3  1  0
  3  4  1  0
  4  5  1  0
  5  6  1  6
  6  7  1  0
  5  8  1  0
  8  9  1  1
  8 10  1  0
 10 11  1  1
 10 12  1  0
 12 13  1  0
 13 14  1  0
 14 15  1  0
 15 16  1  1
 15 17  1  0
 17 18  1  6
 17 19  1  0
 19 20  1  0
M  RAD  3   3   2  12   2  13   2
M  END
>  <docking_score>  (1) 
-3.125

$$$$

     RDKit          3D

 20 19  0  0  0  0  0  0  0  0999 V2000
   16.7543   -3.8008   -7.6022 O   0  0  0  0  0  0  0  0  0  0  0  0
   16.8073   -4.0155   -6.2187 C   0  0  0  0  0  0  0  0  0  0  0  0
   15.4106   -4.3955   -5.7184 C   0  0  0  0  0  3  0  0  0  0  0  0
   15.1407   -3.5766   -4.5720 N   0  0  0  0  0  0  0  0  0  0  0  0
   15.9792   -2.4031   -4.5048 C   0  0  1  0  0  0  0  0  0  0  0  0
   15.1648   -1.1982   -4.9054 C   0  0  0  0  0  0  0  0  0  0  0  0
   14.3080   -0.8080   -3.8875 O   0  0  0  0  0  0  0  0  0  0  0  0
   16.4563   -2.2717   -3.0675 C   0  0  1  0  0  0  0  0  0  0  0  0
   16.2275   -3.4156   -2.3440 O   0  0  0  0  0  0  0  0  0  0  0  0
   17.8993   -1.8236   -3.0059 C   0  0  2  0  0  0  0  0  0  0  0  0
   18.5085   -1.8421   -4.2444 O   0  0  0  0  0  0  0  0  0  0  0  0
   18.6776   -2.6877   -2.0267 C   0  0  0  0  0  3  0  0  0  0  0  0
   19.8003   -3.4032   -2.7455 C   0  0  0  0  0  3  0  0  0  0  0  0
   19.8840   -4.7360   -2.4028 O   0  0  0  0  0  0  0  0  0  0  0  0
   19.1437   -5.4893   -3.2887 C   0  0  2  0  0  0  0  0  0  0  0  0
   18.0260   -6.0371   -2.6650 O   0  0  0  0  0  0  0  0  0  0  0  0
   19.9657   -6.6096   -3.9076 C   0  0  1  0  0  0  0  0  0  0  0  0
   19.1775   -7.7588   -3.9779 O   0  0  0  0  0  0  0  0  0  0  0  0
   20.3498   -6.2274   -5.3107 C   0  0  0  0  0  0  0  0  0  0  0  0
   19.3262   -6.5809   -6.1925 O   0  0  0  0  0  0  0  0  0  0  0  0
  1  2  1  0
  2  3  1  0
  3  4  1  0
  4  5  1  0
  5  6  1  1
  6  7  1  0
  5  8  1  0
  8  9  1  6
  8 10  1  0
 10 11  1  6
 10 12  1  0
 12 13  1  0
 13 14  1  0
 14 15  1  0
 15 16  1  1
 15 17  1  0
 17 18  1  6
 17 19  1  0
 19 20  1  0
M  RAD  3   3   2  12   2  13   2
M  END
>  <docking_score>  (2) 
-3.1160000000000001

$$$$

     RDKit          3D

 20 19  0  0  0  0  0  0  0  0999 V2000
   13.1096   -0.0525   -4.4102 O   0  0  0  0  0  0  0  0  0  0  0  0
   14.0727   -0.9777   -4.8339 C   0  0  0  0  0  0  0  0  0  0  0  0
   15.0214   -1.2793   -3.6702 C   0  0  0  0  0  3  0  0  0  0  0  0
   15.4827   -2.6262   -3.8459 N   0  0  0  0  0  0  0  0  0  0  0  0
   16.7409   -2.8839   -3.1861 C   0  0  1  0  0  0  0  0  0  0  0  0
   16.5005   -3.8151   -2.0241 C   0  0  0  0  0  0  0  0  0  0  0  0
   16.7182   -5.1364   -2.3837 O   0  0  0  0  0  0  0  0  0  0  0  0
   17.6613   -3.5313   -4.2082 C   0  0  1  0  0  0  0  0  0  0  0  0
   17.1317   -3.4916   -5.4739 O   0  0  0  0  0  0  0  0  0  0  0  0
   19.0542   -2.9462   -4.1421 C   0  0  2  0  0  0  0  0  0  0  0  0
   19.5114   -2.5372   -5.3786 O   0  0  0  0  0  0  0  0  0  0  0  0
   20.0190   -3.9511   -3.5334 C   0  0  0  0  0  3  0  0  0  0  0  0
   20.2368   -5.1046   -4.4880 C   0  0  0  0  0  3  0  0  0  0  0  0
   20.4034   -6.3077   -3.8356 O   0  0  0  0  0  0  0  0  0  0  0  0
   19.2359   -7.0375   -3.9046 C   0  0  2  0  0  0  0  0  0  0  0  0
   19.4457   -8.3532   -3.5005 O   0  0  0  0  0  0  0  0  0  0  0  0
   18.6470   -7.0368   -5.3070 C   0  0  1  0  0  0  0  0  0  0  0  0
   19.1208   -8.1553   -5.9935 O   0  0  0  0  0  0  0  0  0  0  0  0
   17.1499   -7.1509   -5.2174 C   0  0  0  0  0  0  0  0  0  0  0  0
   16.7487   -8.4236   -5.6294 O   0  0  0  0  0  0  0  0  0  0  0  0
  1  2  1  0
  2  3  1  0
  3  4  1  0
  4  5  1  0
  5  6  1  1
  6  7  1  0
  5  8  1  0
  8  9  1  6
  8 10  1  0
 10 11  1  6
 10 12  1  0
 12 13  1  0
 13 14  1  0
 14 15  1  0
 15 16  1  6
 15 17  1  0
 17 18  1  6
 17 19  1  0
 19 20  1  0
M  RAD  3   3   2  12   2  13   2
M  END
>  <docking_score>  (3) 
-3.0459999999999998

$$$$
