
     RDKit          3D

 19 20  0  0  0  0  0  0  0  0999 V2000
   20.3087   -4.6355   -6.9122 C   0  0  0  0  0  0  0  0  0  0  0  0
   18.9702   -4.8185   -6.5182 O   0  0  0  0  0  0  0  0  0  0  0  0
   17.9442   -4.2465   -7.2613 C   0  0  0  0  0  0  0  0  0  0  0  0
   17.6976   -2.9643   -7.0579 C   0  0  0  0  0  0  0  0  0  0  0  0
   16.6101   -2.3745   -7.8511 C   0  0  0  0  0  0  0  0  0  0  0  0
   15.4075   -2.2917   -7.3105 C   0  0  0  0  0  0  0  0  0  0  0  0
   15.0742   -2.7554   -5.9489 C   0  0  1  0  0  0  0  0  0  0  0  0
   14.6353   -1.6297   -5.0979 C   0  0  0  0  0  0  0  0  0  0  0  0
   15.0205   -1.5138   -3.8319 N   0  0  0  0  0  0  0  0  0  0  0  0
   15.8914   -2.5459   -3.3178 C   0  0  0  0  0  0  0  0  0  0  0  0
   16.7727   -2.3836   -2.3019 C   0  0  0  0  0  0  0  0  0  0  0  0
   17.5457   -3.5029   -1.9340 C   0  0  0  0  0  0  0  0  0  0  0  0
   17.3751   -4.6927   -2.6113 C   0  0  0  0  0  0  0  0  0  0  0  0
   16.4815   -4.8232   -3.6275 C   0  0  0  0  0  0  0  0  0  0  0  0
   15.7608   -3.7249   -3.9469 C   0  0  0  0  0  0  0  0  0  0  0  0
   14.1120   -3.8540   -5.9267 C   0  0  0  0  0  0  0  0  0  0  0  0
   14.2576   -5.0898   -5.6650 C   0  0  0  0  0  0  0  0  0  0  0  0
   15.2057   -6.0315   -5.3042 C   0  0  0  0  0  0  0  0  0  0  0  0
   16.2118   -6.0229   -4.4354 C   0  0  0  0  0  0  0  0  0  0  0  0
  1  2  1  0
  2  3  1  0
  3  4  2  3
  4  5  1  0
  5  6  2  3
  7  6  1  6
  7  8  1  0
  8  9  2  3
  9 10  1  0
 10 11  1  0
 11 12  2  0
 12 13  1  0
 13 14  2  0
 14 15  1  0
  7 16  1  0
 16 17  2  3
 17 18  1  0
 18 19  2  3
 15 10  2  0
 19 14  1  0
M  END
>  <docking_score>  (1) 
-5.3780000000000001

$$$$

     RDKit          3D

 19 20  0  0  0  0  0  0  0  0999 V2000
   20.5588   -1.2355   -5.6843 C   0  0  0  0  0  0  0  0  0  0  0  0
   19.2531   -1.5554   -5.2678 O   0  0  0  0  0  0  0  0  0  0  0  0
   18.1818   -1.3564   -6.1308 C   0  0  0  0  0  0  0  0  0  0  0  0
   17.7647   -2.4026   -6.8221 C   0  0  0  0  0  0  0  0  0  0  0  0
   16.6314   -2.1759   -7.7298 C   0  0  0  0  0  0  0  0  0  0  0  0
   15.4098   -2.4125   -7.2860 C   0  0  0  0  0  0  0  0  0  0  0  0
   15.0981   -2.8947   -5.9256 C   0  0  1  0  0  0  0  0  0  0  0  0
   14.6010   -1.7942   -5.0738 C   0  0  0  0  0  0  0  0  0  0  0  0
   14.9776   -1.6609   -3.8069 N   0  0  0  0  0  0  0  0  0  0  0  0
   15.8991   -2.6480   -3.2927 C   0  0  0  0  0  0  0  0  0  0  0  0
   16.7693   -2.4426   -2.2750 C   0  0  0  0  0  0  0  0  0  0  0  0
   17.5976   -3.5216   -1.9074 C   0  0  0  0  0  0  0  0  0  0  0  0
   17.4890   -4.7176   -2.5868 C   0  0  0  0  0  0  0  0  0  0  0  0
   16.6050   -4.8918   -3.6048 C   0  0  0  0  0  0  0  0  0  0  0  0
   15.8299   -3.8311   -3.9239 C   0  0  0  0  0  0  0  0  0  0  0  0
   14.1932   -4.0410   -5.9069 C   0  0  0  0  0  0  0  0  0  0  0  0
   14.4011   -5.2682   -5.6467 C   0  0  0  0  0  0  0  0  0  0  0  0
   15.3953   -6.1609   -5.2856 C   0  0  0  0  0  0  0  0  0  0  0  0
   16.3982   -6.1024   -4.4150 C   0  0  0  0  0  0  0  0  0  0  0  0
  1  2  1  0
  2  3  1  0
  3  4  2  3
  4  5  1  0
  5  6  2  3
  7  6  1  6
  7  8  1  0
  8  9  2  3
  9 10  1  0
 10 11  1  0
 11 12  2  0
 12 13  1  0
 13 14  2  0
 14 15  1  0
  7 16  1  0
 16 17  2  3
 17 18  1  0
 18 19  2  3
 15 10  2  0
 19 14  1  0
M  END
>  <docking_score>  (2) 
-5.3620000000000001

$$$$

     RDKit          3D

 19 20  0  0  0  0  0  0  0  0999 V2000
   20.2544   -1.7720   -4.4330 C   0  0  0  0  0  0  0  0  0  0  0  0
   20.3306   -2.3760   -3.1642 O   0  0  0  0  0  0  0  0  0  0  0  0
   20.1912   -3.7536   -3.0426 C   0  0  0  0  0  0  0  0  0  0  0  0
   19.5446   -4.3799   -4.0101 C   0  0  0  0  0  0  0  0  0  0  0  0
   19.4057   -5.8359   -3.8667 C   0  0  0  0  0  0  0  0  0  0  0  0
   18.1916   -6.3480   -3.7713 C   0  0  0  0  0  0  0  0  0  0  0  0
   16.9487   -5.5515   -3.7989 C   0  0  1  0  0  0  0  0  0  0  0  0
   15.9119   -6.2145   -4.6171 C   0  0  0  0  0  0  0  0  0  0  0  0
   15.1266   -5.5330   -5.4437 N   0  0  0  0  0  0  0  0  0  0  0  0
   15.3293   -4.1036   -5.5065 C   0  0  0  0  0  0  0  0  0  0  0  0
   15.0367   -3.3238   -6.5748 C   0  0  0  0  0  0  0  0  0  0  0  0
   15.3043   -1.9452   -6.4592 C   0  0  0  0  0  0  0  0  0  0  0  0
   15.8427   -1.4584   -5.2858 C   0  0  0  0  0  0  0  0  0  0  0  0
   16.1254   -2.2681   -4.2309 C   0  0  0  0  0  0  0  0  0  0  0  0
   15.8524   -3.5832   -4.3847 C   0  0  0  0  0  0  0  0  0  0  0  0
   16.4478   -5.2071   -2.4708 C   0  0  0  0  0  0  0  0  0  0  0  0
   16.4332   -4.1023   -1.8415 C   0  0  0  0  0  0  0  0  0  0  0  0
   16.7964   -2.7712   -1.9514 C   0  0  0  0  0  0  0  0  0  0  0  0
   16.7089   -1.8827   -2.9364 C   0  0  0  0  0  0  0  0  0  0  0  0
  1  2  1  0
  2  3  1  0
  3  4  2  3
  4  5  1  0
  5  6  2  3
  7  6  1  1
  7  8  1  0
  8  9  2  3
  9 10  1  0
 10 11  1  0
 11 12  2  0
 12 13  1  0
 13 14  2  0
 14 15  1  0
  7 16  1  0
 16 17  2  3
 17 18  1  0
 18 19  2  3
 15 10  2  0
 19 14  1  0
M  END
>  <docking_score>  (3) 
-5.0220000000000002

$$$$
