
     RDKit          3D

 21 20  0  0  0  0  0  0  0  0999 V2000
   16.6427   -3.3992   -1.6375 O   0  0  0  0  0  0  0  0  0  0  0  0
   17.1406   -2.5509   -2.5044 O   0  0  0  0  0  0  0  0  0  0  0  0
   18.5170   -2.4314   -2.3386 C   0  0  0  0  0  3  0  0  0  0  0  0
   19.2230   -2.6914   -3.5003 O   0  0  0  0  0  0  0  0  0  0  0  0
   19.7312   -1.5130   -4.0062 C   0  0  2  0  0  0  0  0  0  0  0  0
   20.0763   -0.5704   -2.8539 C   0  0  0  0  0  0  0  0  0  0  0  0
   18.7848   -0.7959   -4.9189 C   0  0  0  0  0  3  0  0  0  0  0  0
   18.9050   -1.1954   -6.3527 C   0  0  0  0  0  3  0  0  0  0  0  0
   17.6921   -1.8558   -6.9124 C   0  0  0  0  0  3  0  0  0  0  0  0
   16.6641   -2.1913   -5.8572 C   0  0  0  0  0  0  0  0  0  0  0  0
   15.6488   -3.1755   -6.3135 C   0  0  2  0  0  0  0  0  0  0  0  0
   15.2236   -2.8042   -7.7177 C   0  0  0  0  0  0  0  0  0  0  0  0
   14.3968   -3.1306   -5.4532 C   0  0  0  0  0  0  0  0  0  0  0  0
   13.4781   -4.2692   -5.7957 C   0  0  0  0  0  0  0  0  0  0  0  0
   16.1365   -4.5954   -6.3477 C   0  0  1  0  0  0  0  0  0  0  0  0
   16.5112   -4.9823   -7.6340 O   0  0  0  0  0  0  0  0  0  0  0  0
   17.2273   -4.8757   -5.3648 C   0  0  2  0  0  0  0  0  0  0  0  0
   18.2134   -5.6208   -6.0509 O   0  0  0  0  0  0  0  0  0  0  0  0
   16.7527   -5.7068   -4.3595 O   0  0  0  0  0  0  0  0  0  0  0  0
   15.7820   -6.9554   -4.9636 S   0  0  0  0  0  0  0  0  0  0  0  0
   16.6457   -8.1413   -5.3120 O   0  0  0  0  0  0  0  0  0  0  0  0
  1  2  1  0
  2  3  1  0
  3  4  1  0
  4  5  1  0
  5  6  1  1
  5  7  1  0
  7  8  1  0
  8  9  1  0
  9 10  1  0
 10 11  1  0
 11 12  1  6
 11 13  1  0
 13 14  1  0
 11 15  1  0
 15 16  1  6
 15 17  1  0
 17 18  1  6
 17 19  1  0
 19 20  1  0
 20 21  2  0
M  RAD  4   3   2   7   2   8   2   9   2
M  END
>  <docking_score>  (1) 
-3.0649999999999999

$$$$

     RDKit          3D

 21 20  0  0  0  0  0  0  0  0999 V2000
   16.2872   -1.6936   -1.7861 O   0  0  0  0  0  0  0  0  0  0  0  0
   17.2205   -1.9702   -2.6644 O   0  0  0  0  0  0  0  0  0  0  0  0
   16.7937   -1.6523   -3.9501 C   0  0  0  0  0  3  0  0  0  0  0  0
   16.3938   -2.7624   -4.6737 O   0  0  0  0  0  0  0  0  0  0  0  0
   15.5322   -2.3736   -5.6784 C   0  0  2  0  0  0  0  0  0  0  0  0
   14.2826   -1.7447   -5.0633 C   0  0  0  0  0  0  0  0  0  0  0  0
   15.0927   -3.5017   -6.5600 C   0  0  0  0  0  3  0  0  0  0  0  0
   14.2797   -4.5389   -5.8578 C   0  0  0  0  0  3  0  0  0  0  0  0
   14.8238   -5.9224   -5.9605 C   0  0  0  0  0  3  0  0  0  0  0  0
   16.1949   -5.9707   -6.5933 C   0  0  0  0  0  0  0  0  0  0  0  0
   17.2099   -6.6560   -5.7519 C   0  0  2  0  0  0  0  0  0  0  0  0
   16.5876   -7.9137   -5.1851 C   0  0  0  0  0  0  0  0  0  0  0  0
   17.6243   -5.8022   -4.5648 C   0  0  0  0  0  0  0  0  0  0  0  0
   18.4106   -6.6160   -3.5763 C   0  0  0  0  0  0  0  0  0  0  0  0
   18.4543   -7.0583   -6.4898 C   0  0  1  0  0  0  0  0  0  0  0  0
   18.6365   -8.4408   -6.4804 O   0  0  0  0  0  0  0  0  0  0  0  0
   18.5238   -6.5181   -7.8819 C   0  0  2  0  0  0  0  0  0  0  0  0
   18.8310   -7.6083   -8.7278 O   0  0  0  0  0  0  0  0  0  0  0  0
   19.5913   -5.6378   -7.9923 O   0  0  0  0  0  0  0  0  0  0  0  0
   19.0845   -4.0445   -8.2581 S   0  0  0  0  0  0  0  0  0  0  0  0
   18.6947   -3.4141   -6.9449 O   0  0  0  0  0  0  0  0  0  0  0  0
  1  2  1  0
  2  3  1  0
  3  4  1  0
  4  5  1  0
  5  6  1  1
  5  7  1  0
  7  8  1  0
  8  9  1  0
  9 10  1  0
 10 11  1  0
 11 12  1  1
 11 13  1  0
 13 14  1  0
 11 15  1  0
 15 16  1  6
 15 17  1  0
 17 18  1  6
 17 19  1  0
 19 20  1  0
 20 21  2  0
M  RAD  4   3   2   7   2   8   2   9   2
M  END
>  <docking_score>  (2) 
-2.827

$$$$

     RDKit          3D

 21 20  0  0  0  0  0  0  0  0999 V2000
   19.6153   -0.4349   -3.2686 O   0  0  0  0  0  0  0  0  0  0  0  0
   20.4427    0.1609   -4.0929 O   0  0  0  0  0  0  0  0  0  0  0  0
   19.7744    0.5856   -5.2370 C   0  0  0  0  0  3  0  0  0  0  0  0
   20.2910    0.0351   -6.3971 O   0  0  0  0  0  0  0  0  0  0  0  0
   20.0709   -1.3267   -6.4006 C   0  0  2  0  0  0  0  0  0  0  0  0
   21.3818   -2.0543   -6.6967 C   0  0  0  0  0  0  0  0  0  0  0  0
   19.0613   -1.7673   -7.4152 C   0  0  0  0  0  3  0  0  0  0  0  0
   18.0804   -2.7683   -6.8998 C   0  0  0  0  0  3  0  0  0  0  0  0
   17.8486   -2.7034   -5.4292 C   0  0  0  0  0  3  0  0  0  0  0  0
   18.5893   -3.7781   -4.6682 C   0  0  0  0  0  0  0  0  0  0  0  0
   17.6921   -4.7842   -4.0431 C   0  0  2  0  0  0  0  0  0  0  0  0
   16.3796   -4.1090   -3.7090 C   0  0  0  0  0  0  0  0  0  0  0  0
   18.2595   -5.3056   -2.7331 C   0  0  0  0  0  0  0  0  0  0  0  0
   18.9851   -4.2138   -1.9989 C   0  0  0  0  0  0  0  0  0  0  0  0
   17.3848   -5.9658   -4.9175 C   0  0  1  0  0  0  0  0  0  0  0  0
   17.8922   -7.1498   -4.3834 O   0  0  0  0  0  0  0  0  0  0  0  0
   15.9330   -6.1045   -5.2450 C   0  0  2  0  0  0  0  0  0  0  0  0
   15.5353   -7.3866   -4.8017 O   0  0  0  0  0  0  0  0  0  0  0  0
   15.7593   -6.1068   -6.6221 O   0  0  0  0  0  0  0  0  0  0  0  0
   14.2686   -5.4496   -7.0822 S   0  0  0  0  0  0  0  0  0  0  0  0
   14.0083   -4.1906   -6.2942 O   0  0  0  0  0  0  0  0  0  0  0  0
  1  2  1  0
  2  3  1  0
  3  4  1  0
  4  5  1  0
  5  6  1  6
  5  7  1  0
  7  8  1  0
  8  9  1  0
  9 10  1  0
 10 11  1  0
 11 12  1  1
 11 13  1  0
 13 14  1  0
 11 15  1  0
 15 16  1  1
 15 17  1  0
 17 18  1  6
 17 19  1  0
 19 20  1  0
 20 21  2  0
M  RAD  4   3   2   7   2   8   2   9   2
M  END
>  <docking_score>  (3) 
-2.7679999999999998

$$$$
