
     RDKit          3D

 32 33  0  0  0  0  0  0  0  0999 V2000
    4.5305   10.2771    7.3232 C   0  0  0  0  0  0  0  0  0  0  0  0
    4.7162   11.5499    6.5801 C   0  0  1  0  0  0  0  0  0  0  0  0
    6.0122   11.4892    5.8282 C   0  0  0  0  0  0  0  0  0  0  0  0
    5.9870   10.5702    4.6419 C   0  0  2  0  0  0  0  0  0  0  0  0
    7.0725   10.8813    3.8062 O   0  0  0  0  0  0  0  0  0  0  0  0
    4.7445   10.7392    3.7920 C   0  0  2  0  0  0  0  0  0  0  0  0
    4.7782   12.0085    3.2002 O   0  0  0  0  0  0  0  0  0  0  0  0
    3.5177   10.6566    4.6588 C   0  0  1  0  0  0  0  0  0  0  0  0
    3.5673    9.4870    5.4146 O   0  0  0  0  0  0  0  0  0  0  0  0
    3.5843   11.8289    5.6285 C   0  0  1  0  0  0  0  0  0  0  0  0
    2.3020   11.9133    6.2720 N   0  0  0  0  0  0  0  0  0  0  0  0
    2.3712   12.1643    7.6883 C   0  0  0  0  0  3  0  0  0  0  0  0
    2.3640   10.8422    8.4386 C   0  0  0  0  0  0  0  0  0  0  0  0
    3.8387   10.4628    8.6616 C   0  0  1  0  0  0  0  0  0  0  0  0
    3.8955    9.2935    9.3728 O   0  0  0  0  0  0  0  0  0  0  0  0
    4.4049   11.5243    9.3041 O   0  0  0  0  0  0  0  0  0  0  0  0
    4.0229   11.6680   10.5877 O   0  0  0  0  0  0  0  0  0  0  0  0
    5.1989   11.3974   11.3293 C   0  0  1  0  0  0  0  0  0  0  0  0
    6.1509   12.3215   10.8906 O   0  0  0  0  0  0  0  0  0  0  0  0
    4.9391   11.5919   12.8031 C   0  0  2  0  0  0  0  0  0  0  0  0
    6.0312   11.3599   13.6202 O   0  0  0  0  0  0  0  0  0  0  0  0
    3.7510   10.7243   13.2211 C   0  0  0  0  0  3  0  0  0  0  0  0
    2.7185   11.5801   13.5765 O   0  0  0  0  0  0  0  0  0  0  0  0
    3.1925   12.8003   13.6631 O   0  0  0  0  0  0  0  0  0  0  0  0
    2.3322   13.7360   13.0813 C   0  0  0  0  0  3  0  0  0  0  0  0
    2.9227   15.3706   13.6097 S   0  0  0  0  0  0  0  0  0  0  0  0
    4.0065   16.0226   12.3007 C   0  0  0  0  0  3  0  0  0  0  0  0
    4.2255   15.0345   11.3425 O   0  0  0  0  0  0  0  0  0  0  0  0
    3.5913   15.4320   10.1673 C   0  0  0  0  0  3  0  0  0  0  0  0
    4.4903   16.0673    9.3076 O   0  0  0  0  0  0  0  0  0  0  0  0
    5.6359   15.2944    9.2194 C   0  0  0  0  0  3  0  0  0  0  0  0
    5.8335   14.7681    7.8120 C   0  0  0  0  0  2  0  0  0  0  0  0
  2  1  1  6
  2  3  1  0
  3  4  1  0
  4  5  1  6
  4  6  1  0
  6  7  1  1
  6  8  1  0
  8  9  1  1
  8 10  1  0
 10 11  1  1
 11 12  1  0
 12 13  1  0
 13 14  1  0
 14 15  1  1
 14 16  1  0
 16 17  1  0
 17 18  1  0
 18 19  1  6
 18 20  1  0
 20 21  1  1
 20 22  1  0
 22 23  1  0
 23 24  1  0
 24 25  1  0
 25 26  1  0
 26 27  1  0
 27 28  1  0
 28 29  1  0
 29 30  1  0
 30 31  1  0
 31 32  1  0
 14  1  1  0
 10  2  1  0
M  RAD  7  12   2  22   2  25   2  27   2  29   2  31   2  32   3
M  END
>  <docking_score>  (1) 
-2.0139999999999998

$$$$

     RDKit          3D

 32 33  0  0  0  0  0  0  0  0999 V2000
   20.1352   -5.7578   -3.8325 C   0  0  0  0  0  0  0  0  0  0  0  0
   19.4113   -5.6245   -5.1227 C   0  0  1  0  0  0  0  0  0  0  0  0
   20.2238   -6.2702   -6.2051 C   0  0  0  0  0  0  0  0  0  0  0  0
   20.2414   -7.7696   -6.1428 C   0  0  2  0  0  0  0  0  0  0  0  0
   20.6755   -8.2682   -7.3823 O   0  0  0  0  0  0  0  0  0  0  0  0
   18.8681   -8.3657   -5.9113 C   0  0  2  0  0  0  0  0  0  0  0  0
   18.0758   -8.1115   -7.0382 O   0  0  0  0  0  0  0  0  0  0  0  0
   18.2202   -7.7095   -4.7227 C   0  0  1  0  0  0  0  0  0  0  0  0
   19.0876   -7.7723   -3.6340 O   0  0  0  0  0  0  0  0  0  0  0  0
   18.0386   -6.2395   -5.0765 C   0  0  1  0  0  0  0  0  0  0  0  0
   17.1882   -5.6684   -4.0684 N   0  0  0  0  0  0  0  0  0  0  0  0
   17.6093   -4.3689   -3.6123 C   0  0  0  0  0  3  0  0  0  0  0  0
   18.5032   -4.5248   -2.3926 C   0  0  0  0  0  0  0  0  0  0  0  0
   19.9495   -4.5610   -2.9173 C   0  0  1  0  0  0  0  0  0  0  0  0
   20.8072   -4.6598   -1.8540 O   0  0  0  0  0  0  0  0  0  0  0  0
   20.1106   -3.4210   -3.6486 O   0  0  0  0  0  0  0  0  0  0  0  0
   18.9592   -2.8243   -4.0126 O   0  0  0  0  0  0  0  0  0  0  0  0
   19.3762   -1.6240   -4.6384 C   0  0  1  0  0  0  0  0  0  0  0  0
   19.7706   -0.7692   -3.6058 O   0  0  0  0  0  0  0  0  0  0  0  0
   20.5460   -1.8948   -5.5526 C   0  0  2  0  0  0  0  0  0  0  0  0
   21.3825   -0.8126   -5.7605 O   0  0  0  0  0  0  0  0  0  0  0  0
   20.0263   -2.4457   -6.8813 C   0  0  0  0  0  3  0  0  0  0  0  0
   18.9791   -1.6306   -7.2859 O   0  0  0  0  0  0  0  0  0  0  0  0
   17.8579   -2.3049   -7.1900 O   0  0  0  0  0  0  0  0  0  0  0  0
   17.4056   -2.7442   -8.4376 C   0  0  0  0  0  3  0  0  0  0  0  0
   15.7149   -3.3572   -8.1813 S   0  0  0  0  0  0  0  0  0  0  0  0
   15.4242   -3.4595   -6.3874 C   0  0  0  0  0  3  0  0  0  0  0  0
   14.1276   -3.0364   -6.1009 O   0  0  0  0  0  0  0  0  0  0  0  0
   14.1396   -2.4504   -4.8370 C   0  0  0  0  0  3  0  0  0  0  0  0
   13.6223   -1.1538   -4.8852 O   0  0  0  0  0  0  0  0  0  0  0  0
   14.2058   -0.4865   -5.9490 C   0  0  0  0  0  3  0  0  0  0  0  0
   15.3366    0.4069   -5.4802 C   0  0  0  0  0  2  0  0  0  0  0  0
  2  1  1  1
  2  3  1  0
  3  4  1  0
  4  5  1  6
  4  6  1  0
  6  7  1  6
  6  8  1  0
  8  9  1  1
  8 10  1  0
 10 11  1  1
 11 12  1  0
 12 13  1  0
 13 14  1  0
 14 15  1  1
 14 16  1  0
 16 17  1  0
 17 18  1  0
 18 19  1  1
 18 20  1  0
 20 21  1  6
 20 22  1  0
 22 23  1  0
 23 24  1  0
 24 25  1  0
 25 26  1  0
 26 27  1  0
 27 28  1  0
 28 29  1  0
 29 30  1  0
 30 31  1  0
 31 32  1  0
 14  1  1  0
 10  2  1  0
M  RAD  7  12   2  22   2  25   2  27   2  29   2  31   2  32   3
M  END
>  <docking_score>  (2) 
-1.599

$$$$

     RDKit          3D

 32 33  0  0  0  0  0  0  0  0999 V2000
    3.8040   13.6011    8.6168 C   0  0  0  0  0  0  0  0  0  0  0  0
    5.0140   12.8686    8.1630 C   0  0  1  0  0  0  0  0  0  0  0  0
    4.6186   11.4798    7.7587 C   0  0  0  0  0  0  0  0  0  0  0  0
    3.8532   11.4141    6.4694 C   0  0  2  0  0  0  0  0  0  0  0  0
    3.8820   10.0926    5.9938 O   0  0  0  0  0  0  0  0  0  0  0  0
    4.4669   12.2644    5.3761 C   0  0  2  0  0  0  0  0  0  0  0  0
    5.7080   11.7158    5.0282 O   0  0  0  0  0  0  0  0  0  0  0  0
    4.6956   13.6619    5.8837 C   0  0  1  0  0  0  0  0  0  0  0  0
    3.5098   14.1537    6.4253 O   0  0  0  0  0  0  0  0  0  0  0  0
    5.7061   13.5580    7.0183 C   0  0  1  0  0  0  0  0  0  0  0  0
    6.1287   14.8967    7.3264 N   0  0  0  0  0  0  0  0  0  0  0  0
    6.2285   15.1710    8.7366 C   0  0  0  0  0  3  0  0  0  0  0  0
    4.9160   15.7551    9.2336 C   0  0  0  0  0  0  0  0  0  0  0  0
    4.0830   14.5695    9.7521 C   0  0  1  0  0  0  0  0  0  0  0  0
    2.8989   15.0417   10.2529 O   0  0  0  0  0  0  0  0  0  0  0  0
    4.8613   13.9434   10.6808 O   0  0  0  0  0  0  0  0  0  0  0  0
    4.3491   12.7901   11.1519 O   0  0  0  0  0  0  0  0  0  0  0  0
    5.3124   12.3429   12.0890 C   0  0  1  0  0  0  0  0  0  0  0  0
    5.9004   11.2081   11.5238 O   0  0  0  0  0  0  0  0  0  0  0  0
    6.3599   13.4076   12.3046 C   0  0  2  0  0  0  0  0  0  0  0  0
    7.4370   13.3456   11.4384 O   0  0  0  0  0  0  0  0  0  0  0  0
    6.8273   13.3630   13.7601 C   0  0  0  0  0  3  0  0  0  0  0  0
    6.3878   14.5283   14.3716 O   0  0  0  0  0  0  0  0  0  0  0  0
    5.0764   14.5508   14.3439 O   0  0  0  0  0  0  0  0  0  0  0  0
    4.5324   14.7893   15.6093 C   0  0  0  0  0  3  0  0  0  0  0  0
    3.3341   13.4574   15.9095 S   0  0  0  0  0  0  0  0  0  0  0  0
    4.1631   11.8733   15.5677 C   0  0  0  0  0  3  0  0  0  0  0  0
    4.2764   11.1427   16.7492 O   0  0  0  0  0  0  0  0  0  0  0  0
    4.1540   12.0324   17.8143 C   0  0  0  0  0  3  0  0  0  0  0  0
    4.9670   11.6447   18.8819 O   0  0  0  0  0  0  0  0  0  0  0  0
    4.9569   12.6527   19.8314 C   0  0  0  0  0  3  0  0  0  0  0  0
    3.7714   13.5763   19.6358 C   0  0  0  0  0  2  0  0  0  0  0  0
  2  1  1  6
  2  3  1  0
  3  4  1  0
  4  5  1  6
  4  6  1  0
  6  7  1  1
  6  8  1  0
  8  9  1  1
  8 10  1  0
 10 11  1  1
 11 12  1  0
 12 13  1  0
 13 14  1  0
 14 15  1  1
 14 16  1  0
 16 17  1  0
 17 18  1  0
 18 19  1  6
 18 20  1  0
 20 21  1  6
 20 22  1  0
 22 23  1  0
 23 24  1  0
 24 25  1  0
 25 26  1  0
 26 27  1  0
 27 28  1  0
 28 29  1  0
 29 30  1  0
 30 31  1  0
 31 32  1  0
 14  1  1  0
 10  2  1  0
M  RAD  7  12   2  22   2  25   2  27   2  29   2  31   2  32   3
M  END
>  <docking_score>  (3) 
-1.4159999999999999

$$$$
