
     RDKit          3D

 23 24  0  0  0  0  0  0  0  0999 V2000
   13.6070   -5.6159   -5.8002 O   0  0  0  0  0  0  0  0  0  0  0  0
   14.6435   -6.2239   -5.4414 C   0  0  0  0  0  0  0  0  0  0  0  0
   14.4452   -7.1963   -4.4300 O   0  0  0  0  0  0  0  0  0  0  0  0
   16.0002   -6.0182   -5.9597 C   0  0  0  0  0  0  0  0  0  0  0  0
   16.3910   -4.6746   -6.2606 C   0  0  0  0  0  0  0  0  0  0  0  0
   16.8273   -3.7398   -5.3916 C   0  0  0  0  0  0  0  0  0  0  0  0
   16.9071   -4.1603   -4.0024 C   0  0  0  0  0  0  0  0  0  0  0  0
   17.7010   -5.6939   -3.5705 Cl  0  0  0  0  0  0  0  0  0  0  0  0
   16.4193   -3.4764   -3.0095 C   0  0  0  0  0  0  0  0  0  0  0  0
   16.9566   -3.5986   -1.8417 C   0  0  0  0  0  0  0  0  0  0  0  0
   18.3526   -3.9663   -1.6634 C   0  0  0  0  0  0  0  0  0  0  0  0
   19.2881   -3.0035   -1.5658 C   0  0  0  0  0  0  0  0  0  0  0  0
   20.6638   -2.6196   -1.4057 C   0  0  0  0  0  0  0  0  0  0  0  0
   20.3271   -1.3469   -1.4893 C   0  0  0  0  0  0  0  0  0  0  0  0
   21.2597   -0.1513   -1.4150 C   0  0  0  0  0  0  0  0  0  0  0  0
   18.9017   -1.5711   -1.6300 C   0  0  1  0  0  0  0  0  0  0  0  0
   18.2132   -1.2720   -2.8760 C   0  0  0  0  0  0  0  0  0  0  0  0
   18.5970   -1.8285   -4.0200 C   0  0  0  0  0  0  0  0  0  0  0  0
   17.9476   -1.5713   -5.2782 C   0  0  0  0  0  0  0  0  0  0  0  0
   17.1548   -2.4126   -5.9022 C   0  0  0  0  0  0  0  0  0  0  0  0
   16.5056   -2.0464   -7.2145 C   0  0  0  0  0  0  0  0  0  0  0  0
   17.4466   -2.3882   -8.3455 C   0  0  0  0  0  0  0  0  0  0  0  0
   18.7345   -2.1586   -8.1109 C   0  0  0  0  0  0  0  0  0  0  0  0
  1  2  2  0
  2  3  1  0
  2  4  1  0
  4  5  1  0
  5  6  2  3
  6  7  1  0
  7  8  1  0
  7  9  2  0
  9 10  2  0
 10 11  1  0
 11 12  2  3
 12 13  1  0
 13 14  2  0
 14 15  1  0
 16 14  1  6
 16 17  1  0
 17 18  2  3
 18 19  1  0
 19 20  2  3
 20 21  1  0
 21 22  1  0
 22 23  2  0
 20  6  1  0
 16 12  1  0
M  END
>  <docking_score>  (1) 
-6.4029999999999996

$$$$

     RDKit          3D

 23 24  0  0  0  0  0  0  0  0999 V2000
   13.7290   -0.2052   -5.8861 O   0  0  0  0  0  0  0  0  0  0  0  0
   14.7122   -0.9301   -5.6024 C   0  0  0  0  0  0  0  0  0  0  0  0
   15.9076   -0.6122   -6.2938 O   0  0  0  0  0  0  0  0  0  0  0  0
   14.7289   -2.0456   -4.6499 C   0  0  0  0  0  0  0  0  0  0  0  0
   15.9126   -2.2199   -3.8643 C   0  0  0  0  0  0  0  0  0  0  0  0
   16.6096   -3.3606   -3.6846 C   0  0  0  0  0  0  0  0  0  0  0  0
   16.0908   -4.5304   -4.3742 C   0  0  0  0  0  0  0  0  0  0  0  0
   15.6602   -4.4411   -6.0990 Cl  0  0  0  0  0  0  0  0  0  0  0  0
   15.9050   -5.6843   -3.8035 C   0  0  0  0  0  0  0  0  0  0  0  0
   15.9664   -6.7551   -4.5227 C   0  0  0  0  0  0  0  0  0  0  0  0
   16.7608   -6.8297   -5.7389 C   0  0  0  0  0  0  0  0  0  0  0  0
   18.0335   -7.2636   -5.6781 C   0  0  0  0  0  0  0  0  0  0  0  0
   19.2737   -7.5721   -6.3356 C   0  0  0  0  0  0  0  0  0  0  0  0
   19.8115   -7.9119   -5.1799 C   0  0  0  0  0  0  0  0  0  0  0  0
   21.2289   -8.4017   -4.9440 C   0  0  0  0  0  0  0  0  0  0  0  0
   18.6261   -7.6741   -4.3798 C   0  0  1  0  0  0  0  0  0  0  0  0
   18.5758   -6.5856   -3.4161 C   0  0  0  0  0  0  0  0  0  0  0  0
   18.7952   -5.3299   -3.7908 C   0  0  0  0  0  0  0  0  0  0  0  0
   18.7519   -4.2167   -2.8798 C   0  0  0  0  0  0  0  0  0  0  0  0
   17.7841   -3.3306   -2.8191 C   0  0  0  0  0  0  0  0  0  0  0  0
   17.8197   -2.2029   -1.8167 C   0  0  0  0  0  0  0  0  0  0  0  0
   18.9043   -1.2268   -2.2071 C   0  0  0  0  0  0  0  0  0  0  0  0
   19.9073   -1.1064   -1.3435 C   0  0  0  0  0  0  0  0  0  0  0  0
  1  2  2  0
  2  3  1  0
  2  4  1  0
  4  5  1  0
  5  6  2  3
  6  7  1  0
  7  8  1  0
  7  9  2  0
  9 10  2  0
 10 11  1  0
 11 12  2  3
 12 13  1  0
 13 14  2  0
 14 15  1  0
 16 14  1  6
 16 17  1  0
 17 18  2  3
 18 19  1  0
 19 20  2  3
 20 21  1  0
 21 22  1  0
 22 23  2  0
 20  6  1  0
 16 12  1  0
M  END
>  <docking_score>  (2) 
-5.9409999999999998

$$$$

     RDKit          3D

 23 24  0  0  0  0  0  0  0  0999 V2000
   20.1909   -8.4581   -5.0737 O   0  0  0  0  0  0  0  0  0  0  0  0
   20.0068   -7.6783   -4.1090 C   0  0  0  0  0  0  0  0  0  0  0  0
   21.1890   -7.2362   -3.4647 O   0  0  0  0  0  0  0  0  0  0  0  0
   18.7140   -7.2031   -3.6044 C   0  0  0  0  0  0  0  0  0  0  0  0
   18.7069   -5.9720   -2.8744 C   0  0  0  0  0  0  0  0  0  0  0  0
   18.2111   -4.7861   -3.2832 C   0  0  0  0  0  0  0  0  0  0  0  0
   17.6194   -4.7754   -4.6109 C   0  0  0  0  0  0  0  0  0  0  0  0
   16.4474   -6.0288   -5.0841 Cl  0  0  0  0  0  0  0  0  0  0  0  0
   17.8947   -3.8862   -5.5193 C   0  0  0  0  0  0  0  0  0  0  0  0
   17.0054   -3.6093   -6.4137 C   0  0  0  0  0  0  0  0  0  0  0  0
   15.5804   -3.7655   -6.1669 C   0  0  0  0  0  0  0  0  0  0  0  0
   14.8679   -2.7259   -5.6943 C   0  0  0  0  0  0  0  0  0  0  0  0
   13.6140   -2.1743   -5.2596 C   0  0  0  0  0  0  0  0  0  0  0  0
   14.2011   -1.0217   -5.0011 C   0  0  0  0  0  0  0  0  0  0  0  0
   13.5440    0.2324   -4.4533 C   0  0  0  0  0  0  0  0  0  0  0  0
   15.5263   -1.4207   -5.4330 C   0  0  1  0  0  0  0  0  0  0  0  0
   16.6151   -1.5674   -4.4796 C   0  0  0  0  0  0  0  0  0  0  0  0
   16.5087   -2.3897   -3.4413 C   0  0  0  0  0  0  0  0  0  0  0  0
   17.5568   -2.5758   -2.4729 C   0  0  0  0  0  0  0  0  0  0  0  0
   18.3254   -3.6378   -2.3900 C   0  0  0  0  0  0  0  0  0  0  0  0
   19.4116   -3.7359   -1.3468 C   0  0  0  0  0  0  0  0  0  0  0  0
   20.4088   -2.6223   -1.5633 C   0  0  0  0  0  0  0  0  0  0  0  0
   21.3637   -2.8708   -2.4537 C   0  0  0  0  0  0  0  0  0  0  0  0
  1  2  2  0
  2  3  1  0
  2  4  1  0
  4  5  1  0
  5  6  2  3
  6  7  1  0
  7  8  1  0
  7  9  2  0
  9 10  2  0
 10 11  1  0
 11 12  2  3
 12 13  1  0
 13 14  2  0
 14 15  1  0
 16 14  1  1
 16 17  1  0
 17 18  2  3
 18 19  1  0
 19 20  2  3
 20 21  1  0
 21 22  1  0
 22 23  2  0
 20  6  1  0
 16 12  1  0
M  END
>  <docking_score>  (3) 
-5.5860000000000003

$$$$
