
     RDKit          3D

 26 29  0  0  0  0  0  0  0  0999 V2000
    5.0335    6.3341    3.8174 O   0  0  0  0  0  0  0  0  0  0  0  0
    4.7044    7.2025    4.7072 C   0  0  0  0  0  0  0  0  0  0  0  0
    3.8645    6.7093    5.7867 C   0  0  0  0  0  0  0  0  0  0  0  0
    3.4605    5.3784    5.8244 C   0  0  0  0  0  0  0  0  0  0  0  0
    2.6650    4.9473    6.8625 C   0  0  0  0  0  0  0  0  0  0  0  0
    2.2622    5.8062    7.8621 C   0  0  0  0  0  0  0  0  0  0  0  0
    2.6870    7.1163    7.7829 C   0  0  0  0  0  0  0  0  0  0  0  0
    3.4768    7.5868    6.7711 C   0  0  0  0  0  0  0  0  0  0  0  0
    3.9266    8.9184    6.6629 N   0  0  0  0  0  0  0  0  0  0  0  0
    4.6654    9.3990    5.7342 C   0  0  0  0  0  0  0  0  0  0  0  0
    5.0030   10.8431    5.8485 C   0  0  0  0  0  0  0  0  0  0  0  0
    5.4255   11.5419    4.7437 C   0  0  0  0  0  0  0  0  0  0  0  0
    5.7373   12.8668    4.8403 C   0  0  0  0  0  0  0  0  0  0  0  0
    5.6198   13.4904    6.0681 C   0  0  0  0  0  0  0  0  0  0  0  0
    5.9239   14.8455    6.2325 O   0  0  0  0  0  0  0  0  0  0  0  0
    5.1997   12.8080    7.1809 C   0  0  0  0  0  0  0  0  0  0  0  0
    4.8912   11.4760    7.0619 C   0  0  0  0  0  0  0  0  0  0  0  0
    5.1327    8.5760    4.6507 C   0  0  2  0  0  0  0  0  0  0  0  0
    5.0919    9.2079    3.2899 C   0  0  0  0  0  0  0  0  0  0  0  0
    3.6483    9.0825    2.7871 C   0  0  0  0  0  0  0  0  0  0  0  0
    2.9114   10.2196    3.1579 O   0  0  0  0  0  0  0  0  0  0  0  0
    2.9654   11.0882    2.0459 C   0  0  0  0  0  0  0  0  0  0  0  0
    3.8720   12.2153    2.3627 C   0  0  0  0  0  0  0  0  0  0  0  0
    5.1776   12.1861    2.0792 C   0  0  0  0  0  0  0  0  0  0  0  0
    5.9413   13.3717    2.4518 C   0  0  0  0  0  0  0  0  0  0  0  0
    6.1915   13.6739    3.7153 C   0  0  0  0  0  0  0  0  0  0  0  0
  1  2  2  0
  2  3  1  0
  3  4  2  0
  4  5  1  0
  5  6  2  0
  6  7  1  0
  7  8  2  0
  8  9  1  0
  9 10  2  0
 10 11  1  0
 11 12  2  0
 12 13  1  0
 13 14  2  0
 14 15  1  0
 14 16  1  0
 16 17  2  0
 10 18  1  0
 18 19  1  6
 19 20  1  0
 20 21  1  0
 21 22  1  0
 22 23  1  0
 23 24  2  3
 24 25  1  0
 25 26  2  3
 18  2  1  0
  8  3  1  0
 17 11  1  0
 26 13  1  0
M  END
>  <docking_score>  (1) 
-5.9580000000000002

$$$$

     RDKit          3D

 26 29  0  0  0  0  0  0  0  0999 V2000
    3.6054   12.4884    8.3896 O   0  0  0  0  0  0  0  0  0  0  0  0
    3.7817   11.2301    8.5894 C   0  0  0  0  0  0  0  0  0  0  0  0
    4.4459   10.8781    9.8339 C   0  0  0  0  0  0  0  0  0  0  0  0
    4.8519   11.8632   10.7286 C   0  0  0  0  0  0  0  0  0  0  0  0
    5.4782   11.4918   11.8975 C   0  0  0  0  0  0  0  0  0  0  0  0
    5.7100   10.1668   12.1975 C   0  0  0  0  0  0  0  0  0  0  0  0
    5.2901    9.2254   11.2807 C   0  0  0  0  0  0  0  0  0  0  0  0
    4.6649    9.5492   10.1088 C   0  0  0  0  0  0  0  0  0  0  0  0
    4.2248    8.6110    9.1532 N   0  0  0  0  0  0  0  0  0  0  0  0
    3.6368    8.8712    8.0460 C   0  0  0  0  0  0  0  0  0  0  0  0
    3.2712    7.6978    7.2082 C   0  0  0  0  0  0  0  0  0  0  0  0
    3.0212    7.8594    5.8670 C   0  0  0  0  0  0  0  0  0  0  0  0
    2.6851    6.7881    5.0916 C   0  0  0  0  0  0  0  0  0  0  0  0
    2.6015    5.5405    5.6803 C   0  0  0  0  0  0  0  0  0  0  0  0
    2.2620    4.4035    4.9403 O   0  0  0  0  0  0  0  0  0  0  0  0
    2.8478    5.3613    7.0174 C   0  0  0  0  0  0  0  0  0  0  0  0
    3.1842    6.4522    7.7793 C   0  0  0  0  0  0  0  0  0  0  0  0
    3.3542   10.2254    7.6509 C   0  0  2  0  0  0  0  0  0  0  0  0
    3.6026   10.5463    6.2059 C   0  0  0  0  0  0  0  0  0  0  0  0
    5.1086   10.7989    6.0615 C   0  0  0  0  0  0  0  0  0  0  0  0
    5.7666    9.6002    5.7395 O   0  0  0  0  0  0  0  0  0  0  0  0
    5.8799    9.5936    4.3320 C   0  0  0  0  0  0  0  0  0  0  0  0
    4.9237    8.6073    3.7796 C   0  0  0  0  0  0  0  0  0  0  0  0
    3.6795    8.9383    3.4218 C   0  0  0  0  0  0  0  0  0  0  0  0
    2.8549    7.8570    2.8938 C   0  0  0  0  0  0  0  0  0  0  0  0
    2.4058    6.8798    3.6643 C   0  0  0  0  0  0  0  0  0  0  0  0
  1  2  2  0
  2  3  1  0
  3  4  2  0
  4  5  1  0
  5  6  2  0
  6  7  1  0
  7  8  2  0
  8  9  1  0
  9 10  2  0
 10 11  1  0
 11 12  2  0
 12 13  1  0
 13 14  2  0
 14 15  1  0
 14 16  1  0
 16 17  2  0
 10 18  1  0
 18 19  1  6
 19 20  1  0
 20 21  1  0
 21 22  1  0
 22 23  1  0
 23 24  2  3
 24 25  1  0
 25 26  2  3
 18  2  1  0
  8  3  1  0
 17 11  1  0
 26 13  1  0
M  END
>  <docking_score>  (2) 
-5.6319999999999997

$$$$

     RDKit          3D

 26 29  0  0  0  0  0  0  0  0999 V2000
   13.1201   -4.0773   -5.3690 O   0  0  0  0  0  0  0  0  0  0  0  0
   14.3283   -3.6936   -5.1512 C   0  0  0  0  0  0  0  0  0  0  0  0
   14.5667   -2.2649   -5.2775 C   0  0  0  0  0  0  0  0  0  0  0  0
   13.5328   -1.3967   -5.6138 C   0  0  0  0  0  0  0  0  0  0  0  0
   13.7963   -0.0496   -5.7245 C   0  0  0  0  0  0  0  0  0  0  0  0
   15.0609    0.4540   -5.5091 C   0  0  0  0  0  0  0  0  0  0  0  0
   16.0542   -0.4443   -5.1781 C   0  0  0  0  0  0  0  0  0  0  0  0
   15.8372   -1.7886   -5.0575 C   0  0  0  0  0  0  0  0  0  0  0  0
   16.8306   -2.7305   -4.7210 N   0  0  0  0  0  0  0  0  0  0  0  0
   16.6700   -3.9948   -4.5980 C   0  0  0  0  0  0  0  0  0  0  0  0
   17.8825   -4.7755   -4.2334 C   0  0  0  0  0  0  0  0  0  0  0  0
   17.9280   -6.1282   -4.4688 C   0  0  0  0  0  0  0  0  0  0  0  0
   19.0365   -6.8515   -4.1371 C   0  0  0  0  0  0  0  0  0  0  0  0
   20.1098   -6.1984   -3.5615 C   0  0  0  0  0  0  0  0  0  0  0  0
   21.2742   -6.8829   -3.1990 O   0  0  0  0  0  0  0  0  0  0  0  0
   20.0813   -4.8488   -3.3195 C   0  0  0  0  0  0  0  0  0  0  0  0
   18.9566   -4.1400   -3.6607 C   0  0  0  0  0  0  0  0  0  0  0  0
   15.3850   -4.6079   -4.8042 C   0  0  2  0  0  0  0  0  0  0  0  0
   15.3961   -5.8995   -5.5684 C   0  0  0  0  0  0  0  0  0  0  0  0
   15.4804   -5.5330   -7.0554 C   0  0  0  0  0  0  0  0  0  0  0  0
   16.8249   -5.4721   -7.4582 O   0  0  0  0  0  0  0  0  0  0  0  0
   17.1170   -6.7409   -8.0048 C   0  0  0  0  0  0  0  0  0  0  0  0
   17.9784   -7.4836   -7.0566 C   0  0  0  0  0  0  0  0  0  0  0  0
   17.4787   -8.2885   -6.1142 C   0  0  0  0  0  0  0  0  0  0  0  0
   18.4532   -8.9519   -5.2550 C   0  0  0  0  0  0  0  0  0  0  0  0
   19.1595   -8.2871   -4.3554 C   0  0  0  0  0  0  0  0  0  0  0  0
  1  2  2  0
  2  3  1  0
  3  4  2  0
  4  5  1  0
  5  6  2  0
  6  7  1  0
  7  8  2  0
  8  9  1  0
  9 10  2  0
 10 11  1  0
 11 12  2  0
 12 13  1  0
 13 14  2  0
 14 15  1  0
 14 16  1  0
 16 17  2  0
 10 18  1  0
 18 19  1  6
 19 20  1  0
 20 21  1  0
 21 22  1  0
 22 23  1  0
 23 24  2  3
 24 25  1  0
 25 26  2  3
 18  2  1  0
  8  3  1  0
 17 11  1  0
 26 13  1  0
M  END
>  <docking_score>  (3) 
-5.4800000000000004

$$$$
