
     RDKit          3D

 22 21  0  0  0  0  0  0  0  0999 V2000
   16.1694   -2.6404   -1.1937 C   0  0  0  0  0  0  0  0  0  0  0  0
   16.5457   -3.3134   -2.5146 C   0  0  0  0  0  0  0  0  0  0  0  0
   17.7453   -4.2147   -2.2764 C   0  0  0  0  0  0  0  0  0  0  0  0
   16.9387   -2.2043   -3.4947 C   0  0  0  0  0  0  0  0  0  0  0  0
   15.6239   -1.6433   -4.0450 C   0  0  0  0  0  0  0  0  0  0  0  0
   15.9215   -1.1414   -5.4383 C   0  0  0  0  0  0  0  0  0  0  0  0
   15.0997   -1.8982   -6.4778 C   0  0  1  0  0  0  0  0  0  0  0  0
   16.0088   -2.3530   -7.5973 C   0  0  0  0  0  0  0  0  0  0  0  0
   14.4946   -3.1122   -5.8445 C   0  0  0  0  0  3  0  0  0  0  0  0
   14.9565   -4.4036   -6.4354 C   0  0  0  0  0  3  0  0  0  0  0  0
   15.6618   -5.2992   -5.4369 C   0  0  0  0  0  0  0  0  0  0  0  0
   16.0732   -6.5510   -6.1856 C   0  0  1  0  0  0  0  0  0  0  0  0
   16.7173   -6.1724   -7.5135 C   0  0  0  0  0  0  0  0  0  0  0  0
   16.9515   -7.4437   -5.3583 C   0  0  0  0  0  3  0  0  0  0  0  0
   18.3720   -7.1623   -5.5312 C   0  0  0  0  0  0  0  0  0  0  0  0
   19.0663   -6.1163   -4.8201 C   0  0  0  0  0  0  0  0  0  0  0  0
   19.8532   -5.0819   -5.4732 C   0  0  2  0  0  0  0  0  0  0  0  0
   21.1684   -4.7027   -4.9107 C   0  0  0  0  0  2  0  0  0  0  0  0
   19.0320   -3.8656   -5.7629 C   0  0  0  0  0  0  0  0  0  0  0  0
   19.6475   -3.0952   -6.9113 C   0  0  0  0  0  0  0  0  0  0  0  0
   19.5211   -1.6257   -6.6579 C   0  0  0  0  0  0  0  0  0  0  0  0
   19.9870   -1.2909   -4.9548 Cl  0  0  0  0  0  0  0  0  0  0  0  0
  1  2  1  0
  2  3  1  0
  2  4  1  0
  4  5  1  0
  5  6  1  0
  6  7  1  0
  7  8  1  6
  7  9  1  0
  9 10  1  0
 10 11  1  0
 11 12  1  0
 12 13  1  6
 12 14  1  0
 14 15  1  0
 15 16  1  0
 16 17  1  0
 17 18  1  1
 17 19  1  0
 19 20  1  0
 20 21  1  0
 21 22  1  0
M  RAD  4   9   2  10   2  14   2  18   3
M  END
>  <docking_score>  (1) 
-2.5369999999999999

$$$$

     RDKit          3D

 22 21  0  0  0  0  0  0  0  0999 V2000
   20.3803   -0.4243   -1.2716 C   0  0  0  0  0  0  0  0  0  0  0  0
   20.2639   -1.2921   -2.5257 C   0  0  0  0  0  0  0  0  0  0  0  0
   20.7112   -0.4746   -3.7256 C   0  0  0  0  0  0  0  0  0  0  0  0
   18.7860   -1.6575   -2.6907 C   0  0  0  0  0  0  0  0  0  0  0  0
   18.7007   -2.5016   -3.9660 C   0  0  0  0  0  0  0  0  0  0  0  0
   18.9866   -3.9273   -3.5566 C   0  0  0  0  0  0  0  0  0  0  0  0
   19.8036   -4.6482   -4.6251 C   0  0  1  0  0  0  0  0  0  0  0  0
   20.9796   -3.7841   -5.0210 C   0  0  0  0  0  0  0  0  0  0  0  0
   20.3336   -5.9307   -4.0636 C   0  0  0  0  0  3  0  0  0  0  0  0
   20.1065   -7.1200   -4.9378 C   0  0  0  0  0  3  0  0  0  0  0  0
   19.3623   -6.7887   -6.2158 C   0  0  0  0  0  0  0  0  0  0  0  0
   18.1688   -7.7204   -6.2815 C   0  0  1  0  0  0  0  0  0  0  0  0
   17.3328   -7.5817   -5.0152 C   0  0  0  0  0  0  0  0  0  0  0  0
   17.3573   -7.5154   -7.5274 C   0  0  0  0  0  3  0  0  0  0  0  0
   16.9080   -6.1379   -7.6931 C   0  0  0  0  0  0  0  0  0  0  0  0
   16.1658   -5.4185   -6.6865 C   0  0  0  0  0  0  0  0  0  0  0  0
   14.9646   -4.6475   -6.9669 C   0  0  2  0  0  0  0  0  0  0  0  0
   14.3681   -4.6947   -8.3204 C   0  0  0  0  0  2  0  0  0  0  0  0
   15.0951   -3.2337   -6.4961 C   0  0  0  0  0  0  0  0  0  0  0  0
   14.4965   -3.0986   -5.1124 C   0  0  0  0  0  0  0  0  0  0  0  0
   14.9592   -1.8211   -4.4853 C   0  0  0  0  0  0  0  0  0  0  0  0
   15.8678   -0.8715   -5.7112 Cl  0  0  0  0  0  0  0  0  0  0  0  0
  1  2  1  0
  2  3  1  0
  2  4  1  0
  4  5  1  0
  5  6  1  0
  6  7  1  0
  7  8  1  1
  7  9  1  0
  9 10  1  0
 10 11  1  0
 11 12  1  0
 12 13  1  1
 12 14  1  0
 14 15  1  0
 15 16  1  0
 16 17  1  0
 17 18  1  6
 17 19  1  0
 19 20  1  0
 20 21  1  0
 21 22  1  0
M  RAD  4   9   2  10   2  14   2  18   3
M  END
>  <docking_score>  (2) 
-1.901

$$$$

     RDKit          3D

 22 21  0  0  0  0  0  0  0  0999 V2000
    3.9727    4.8488    5.5362 C   0  0  0  0  0  0  0  0  0  0  0  0
    3.2566    5.1616    6.8511 C   0  0  0  0  0  0  0  0  0  0  0  0
    2.2781    4.0387    7.1507 C   0  0  0  0  0  0  0  0  0  0  0  0
    2.4777    6.4641    6.6463 C   0  0  0  0  0  0  0  0  0  0  0  0
    3.5047    7.4996    6.1780 C   0  0  0  0  0  0  0  0  0  0  0  0
    3.3250    8.7117    7.0613 C   0  0  0  0  0  0  0  0  0  0  0  0
    3.6891    9.9909    6.3129 C   0  0  1  0  0  0  0  0  0  0  0  0
    2.6983   10.2121    5.1923 C   0  0  0  0  0  0  0  0  0  0  0  0
    3.6035   11.1556    7.2495 C   0  0  0  0  0  3  0  0  0  0  0  0
    4.2030   12.4145    6.7147 C   0  0  0  0  0  3  0  0  0  0  0  0
    5.3267   12.9543    7.5765 C   0  0  0  0  0  0  0  0  0  0  0  0
    5.5458   14.3945    7.1586 C   0  0  1  0  0  0  0  0  0  0  0  0
    5.5228   15.2990    8.3845 C   0  0  0  0  0  0  0  0  0  0  0  0
    6.7960   14.5651    6.3458 C   0  0  0  0  0  3  0  0  0  0  0  0
    6.7988   13.7589    5.1307 C   0  0  0  0  0  0  0  0  0  0  0  0
    7.1574   14.2792    3.8336 C   0  0  0  0  0  0  0  0  0  0  0  0
    7.5140   13.4417    2.6990 C   0  0  2  0  0  0  0  0  0  0  0  0
    7.9782   14.0740    1.4442 C   0  0  0  0  0  2  0  0  0  0  0  0
    6.4598   12.4188    2.4165 C   0  0  0  0  0  0  0  0  0  0  0  0
    6.9749   11.0415    2.7759 C   0  0  0  0  0  0  0  0  0  0  0  0
    6.1785   10.4867    3.9149 C   0  0  0  0  0  0  0  0  0  0  0  0
    7.3032   10.0452    5.2454 Cl  0  0  0  0  0  0  0  0  0  0  0  0
  1  2  1  0
  2  3  1  0
  2  4  1  0
  4  5  1  0
  5  6  1  0
  6  7  1  0
  7  8  1  6
  7  9  1  0
  9 10  1  0
 10 11  1  0
 11 12  1  0
 12 13  1  1
 12 14  1  0
 14 15  1  0
 15 16  1  0
 16 17  1  0
 17 18  1  6
 17 19  1  0
 19 20  1  0
 20 21  1  0
 21 22  1  0
M  RAD  4   9   2  10   2  14   2  18   3
M  END
>  <docking_score>  (3) 
-1.764

$$$$
