
     RDKit          3D

 23 23  0  0  0  0  0  0  0  0999 V2000
   16.4297   -1.1595   -5.7825 C   0  0  0  0  0  0  0  0  0  0  0  0
   17.2145   -2.4554   -5.5624 C   0  0  1  0  0  0  0  0  0  0  0  0
   18.2054   -2.5431   -6.6900 C   0  0  0  0  0  0  0  0  0  0  0  0
   19.5713   -3.0094   -6.2802 C   0  0  2  0  0  0  0  0  0  0  0  0
   19.6262   -4.3913   -6.0861 O   0  0  0  0  0  0  0  0  0  0  0  0
   20.1366   -2.2384   -5.1152 C   0  0  2  0  0  0  0  0  0  0  0  0
   20.4850   -3.1953   -4.1331 O   0  0  0  0  0  0  0  0  0  0  0  0
   19.0660   -1.3650   -4.4463 C   0  0  1  0  0  0  0  0  0  0  0  0
   18.6670   -0.4403   -5.4217 O   0  0  0  0  0  0  0  0  0  0  0  0
   17.8883   -2.3204   -4.2243 C   0  0  1  0  0  0  0  0  0  0  0  0
   17.0132   -1.8512   -3.1989 N   0  0  0  0  0  0  0  0  0  0  0  0
   16.5071   -3.0345   -2.4881 C   0  0  0  0  0  3  0  0  0  0  0  0
   17.6305   -4.0215   -2.2548 C   0  0  0  0  0  0  0  0  0  0  0  0
   17.2185   -5.3195   -2.4155 O   0  0  0  0  0  0  0  0  0  0  0  0
   17.2360   -5.8020   -3.7018 C   0  0  0  0  0  0  0  0  0  0  0  0
   15.9398   -6.2204   -4.0324 O   0  0  0  0  0  0  0  0  0  0  0  0
   15.9156   -6.7491   -5.2394 O   0  0  0  0  0  0  0  0  0  0  0  0
   15.7396   -5.7436   -6.1928 C   0  0  1  0  0  0  0  0  0  0  0  0
   16.6482   -6.0073   -7.2280 O   0  0  0  0  0  0  0  0  0  0  0  0
   14.3317   -5.6659   -6.6850 C   0  0  2  0  0  0  0  0  0  0  0  0
   14.3114   -5.0763   -7.9343 O   0  0  0  0  0  0  0  0  0  0  0  0
   13.4056   -4.9250   -5.7730 C   0  0  0  0  0  3  0  0  0  0  0  0
   13.8877   -3.6644   -5.3903 O   0  0  0  0  0  0  0  0  0  0  0  0
  2  1  1  6
  2  3  1  0
  3  4  1  0
  4  5  1  1
  4  6  1  0
  6  7  1  1
  6  8  1  0
  8  9  1  6
  8 10  1  0
 10 11  1  1
 11 12  1  0
 12 13  1  0
 13 14  1  0
 14 15  1  0
 15 16  1  0
 16 17  1  0
 17 18  1  0
 18 19  1  6
 18 20  1  0
 20 21  1  6
 20 22  1  0
 22 23  1  0
 10  2  1  0
M  RAD  2  12   2  22   2
M  END
>  <docking_score>  (1) 
-3.589

$$$$

     RDKit          3D

 23 23  0  0  0  0  0  0  0  0999 V2000
   16.5529   -4.3745   -1.9124 C   0  0  0  0  0  0  0  0  0  0  0  0
   17.1281   -3.6313   -3.1209 C   0  0  1  0  0  0  0  0  0  0  0  0
   17.3595   -2.2150   -2.6719 C   0  0  0  0  0  0  0  0  0  0  0  0
   18.6485   -1.6154   -3.1511 C   0  0  2  0  0  0  0  0  0  0  0  0
   18.5841   -1.2120   -4.4866 O   0  0  0  0  0  0  0  0  0  0  0  0
   19.8481   -2.4816   -2.8654 C   0  0  2  0  0  0  0  0  0  0  0  0
   20.5057   -2.6755   -4.1030 O   0  0  0  0  0  0  0  0  0  0  0  0
   19.4313   -3.8903   -2.4203 C   0  0  1  0  0  0  0  0  0  0  0  0
   18.7298   -3.7164   -1.2189 O   0  0  0  0  0  0  0  0  0  0  0  0
   18.4116   -4.3304   -3.4765 C   0  0  1  0  0  0  0  0  0  0  0  0
   18.2828   -5.7511   -3.5269 N   0  0  0  0  0  0  0  0  0  0  0  0
   19.5381   -6.2792   -4.0809 C   0  0  0  0  0  3  0  0  0  0  0  0
   19.6237   -5.9724   -5.5605 C   0  0  0  0  0  0  0  0  0  0  0  0
   18.4355   -6.2032   -6.2049 O   0  0  0  0  0  0  0  0  0  0  0  0
   18.0129   -5.2152   -7.0610 C   0  0  0  0  0  0  0  0  0  0  0  0
   16.7620   -4.7591   -6.6231 O   0  0  0  0  0  0  0  0  0  0  0  0
   16.6745   -3.4500   -6.7484 O   0  0  0  0  0  0  0  0  0  0  0  0
   15.3317   -3.0669   -6.7835 C   0  0  1  0  0  0  0  0  0  0  0  0
   14.6742   -3.9816   -7.6189 O   0  0  0  0  0  0  0  0  0  0  0  0
   14.7209   -3.0076   -5.4219 C   0  0  2  0  0  0  0  0  0  0  0  0
   13.6277   -3.8506   -5.3694 O   0  0  0  0  0  0  0  0  0  0  0  0
   14.3075   -1.6339   -4.9971 C   0  0  0  0  0  3  0  0  0  0  0  0
   15.0984   -0.6159   -5.5503 O   0  0  0  0  0  0  0  0  0  0  0  0
  2  1  1  1
  2  3  1  0
  3  4  1  0
  4  5  1  6
  4  6  1  0
  6  7  1  6
  6  8  1  0
  8  9  1  1
  8 10  1  0
 10 11  1  1
 11 12  1  0
 12 13  1  0
 13 14  1  0
 14 15  1  0
 15 16  1  0
 16 17  1  0
 17 18  1  0
 18 19  1  6
 18 20  1  0
 20 21  1  6
 20 22  1  0
 22 23  1  0
 10  2  1  0
M  RAD  2  12   2  22   2
M  END
>  <docking_score>  (2) 
-3.589

$$$$

     RDKit          3D

 23 23  0  0  0  0  0  0  0  0999 V2000
    2.5126    6.3560    4.7411 C   0  0  0  0  0  0  0  0  0  0  0  0
    2.5744    7.6853    5.4983 C   0  0  1  0  0  0  0  0  0  0  0  0
    3.3509    7.4157    6.7574 C   0  0  0  0  0  0  0  0  0  0  0  0
    4.3315    8.4907    7.1232 C   0  0  2  0  0  0  0  0  0  0  0  0
    3.7137    9.5987    7.7071 O   0  0  0  0  0  0  0  0  0  0  0  0
    5.2469    8.8699    5.9877 C   0  0  2  0  0  0  0  0  0  0  0  0
    5.1238   10.2698    5.8248 O   0  0  0  0  0  0  0  0  0  0  0  0
    4.7654    8.2783    4.6556 C   0  0  1  0  0  0  0  0  0  0  0  0
    4.8291    6.8867    4.8136 O   0  0  0  0  0  0  0  0  0  0  0  0
    3.2815    8.6561    4.5927 C   0  0  1  0  0  0  0  0  0  0  0  0
    2.7878    8.6376    3.2535 N   0  0  0  0  0  0  0  0  0  0  0  0
    3.6722    9.4991    2.4552 C   0  0  0  0  0  3  0  0  0  0  0  0
    3.3612   10.9556    2.7240 C   0  0  0  0  0  0  0  0  0  0  0  0
    4.4961   11.6940    2.9415 O   0  0  0  0  0  0  0  0  0  0  0  0
    5.3561   11.8044    1.8757 C   0  0  0  0  0  0  0  0  0  0  0  0
    6.6641   11.6228    2.3453 O   0  0  0  0  0  0  0  0  0  0  0  0
    7.2920   12.7784    2.4311 O   0  0  0  0  0  0  0  0  0  0  0  0
    7.9918   12.8479    3.6380 C   0  0  1  0  0  0  0  0  0  0  0  0
    8.3032   11.5289    3.9989 O   0  0  0  0  0  0  0  0  0  0  0  0
    9.2091   13.7078    3.5415 C   0  0  2  0  0  0  0  0  0  0  0  0
    9.3555   14.4330    4.7083 O   0  0  0  0  0  0  0  0  0  0  0  0
    9.2050   14.6438    2.3743 C   0  0  0  0  0  3  0  0  0  0  0  0
    9.5468   15.9614    2.7130 O   0  0  0  0  0  0  0  0  0  0  0  0
  2  1  1  6
  2  3  1  0
  3  4  1  0
  4  5  1  6
  4  6  1  0
  6  7  1  6
  6  8  1  0
  8  9  1  1
  8 10  1  0
 10 11  1  6
 11 12  1  0
 12 13  1  0
 13 14  1  0
 14 15  1  0
 15 16  1  0
 16 17  1  0
 17 18  1  0
 18 19  1  6
 18 20  1  0
 20 21  1  1
 20 22  1  0
 22 23  1  0
 10  2  1  0
M  RAD  2  12   2  22   2
M  END
>  <docking_score>  (3) 
-3.2789999999999999

$$$$
