
     RDKit          3D

 25 24  0  0  0  0  0  0  0  0999 V2000
   15.1523   -1.2389   -4.9215 C   0  0  0  0  0  0  0  0  0  0  0  0
   16.0644   -1.0693   -6.1098 C   0  0  0  0  0  0  0  0  0  0  0  0
   15.9513   -2.2142   -7.0865 C   0  0  0  0  0  0  0  0  0  0  0  0
   17.4846   -0.7807   -5.7112 C   0  0  0  0  0  0  0  0  0  0  0  0
   18.4805   -1.6552   -6.4312 C   0  0  0  0  0  0  0  0  0  0  0  0
   19.8841   -1.1530   -6.3258 C   0  0  0  0  0  0  0  0  0  0  0  0
   20.3329   -1.2466   -4.8990 C   0  0  1  0  0  0  0  0  0  0  0  0
   20.3053    0.0879   -4.1899 C   0  0  0  0  0  0  0  0  0  0  0  0
   19.5431   -2.2375   -4.0890 C   0  0  0  0  0  3  0  0  0  0  0  0
   20.1686   -2.3663   -2.7112 C   0  0  0  0  0  0  0  0  0  0  0  0
   19.0945   -2.4788   -1.6489 C   0  0  0  0  0  0  0  0  0  0  0  0
   17.8336   -1.8636   -2.1873 C   0  0  0  0  0  3  0  0  0  0  0  0
   16.8640   -2.9664   -2.5367 C   0  0  0  0  0  2  0  0  0  0  0  0
   17.1308   -4.1681   -1.6919 C   0  0  0  0  0  3  0  0  0  0  0  0
   17.0533   -5.4216   -2.5154 C   0  0  0  0  0  3  0  0  0  0  0  0
   17.9683   -5.3781   -3.7032 C   0  0  0  0  0  3  0  0  0  0  0  0
   18.4508   -6.7465   -4.0784 C   0  0  0  0  0  0  0  0  0  0  0  0
   17.7501   -7.2225   -5.3283 C   0  0  1  0  0  0  0  0  0  0  0  0
   16.4380   -7.7450   -5.0836 N   0  0  0  0  0  1  0  0  0  0  0  0
   17.8251   -6.2498   -6.4605 C   0  0  0  0  0  3  0  0  0  0  0  0
   16.6208   -5.3713   -6.5979 C   0  0  0  0  0  0  0  0  0  0  0  0
   15.7673   -5.7125   -7.7788 C   0  0  0  0  0  0  0  0  0  0  0  0
   14.3160   -5.6113   -7.3809 C   0  0  0  0  0  0  0  0  0  0  0  0
   13.4667   -5.1858   -8.5241 C   0  0  0  0  0  0  0  0  0  0  0  0
   12.3754   -5.6492   -8.7397 O   0  0  0  0  0  0  0  0  0  0  0  0
  1  2  1  0
  2  3  1  0
  2  4  1  0
  4  5  1  0
  5  6  1  0
  6  7  1  0
  7  8  1  1
  7  9  1  0
  9 10  1  0
 10 11  1  0
 11 12  1  0
 12 13  1  0
 13 14  1  0
 14 15  1  0
 15 16  1  0
 16 17  1  0
 17 18  1  0
 18 19  1  1
 18 20  1  0
 20 21  1  0
 21 22  1  0
 22 23  1  0
 23 24  1  0
 24 25  2  0
M  RAD  8   9   2  12   2  13   3  14   2  15   2  16   2  19   2  20   2
M  CHG  1  19   1
M  END
>  <docking_score>  (1) 
-3.4630000000000001

$$$$

     RDKit          3D

 25 24  0  0  0  0  0  0  0  0999 V2000
   19.3680   -8.5645   -4.6191 C   0  0  0  0  0  0  0  0  0  0  0  0
   20.8332   -8.3167   -4.3652 C   0  0  0  0  0  0  0  0  0  0  0  0
   21.3790   -9.1901   -3.2621 C   0  0  0  0  0  0  0  0  0  0  0  0
   21.1464   -6.8603   -4.1652 C   0  0  0  0  0  0  0  0  0  0  0  0
   19.9595   -6.0722   -3.6704 C   0  0  0  0  0  0  0  0  0  0  0  0
   19.9254   -4.6736   -4.1960 C   0  0  0  0  0  0  0  0  0  0  0  0
   19.6312   -3.7324   -3.0675 C   0  0  1  0  0  0  0  0  0  0  0  0
   19.4705   -2.3017   -3.5278 C   0  0  0  0  0  0  0  0  0  0  0  0
   18.4169   -4.1194   -2.2691 C   0  0  0  0  0  3  0  0  0  0  0  0
   17.4322   -2.9633   -2.2672 C   0  0  0  0  0  0  0  0  0  0  0  0
   16.5384   -3.0253   -3.4887 C   0  0  0  0  0  0  0  0  0  0  0  0
   16.2258   -1.6187   -3.9154 C   0  0  0  0  0  3  0  0  0  0  0  0
   15.4958   -1.6609   -5.2358 C   0  0  0  0  0  2  0  0  0  0  0  0
   16.0251   -2.7749   -6.0771 C   0  0  0  0  0  3  0  0  0  0  0  0
   14.9061   -3.4735   -6.7950 C   0  0  0  0  0  3  0  0  0  0  0  0
   13.9671   -4.1621   -5.8493 C   0  0  0  0  0  3  0  0  0  0  0  0
   14.2006   -5.6421   -5.8201 C   0  0  0  0  0  0  0  0  0  0  0  0
   15.6815   -5.9366   -5.8016 C   0  0  1  0  0  0  0  0  0  0  0  0
   16.0863   -6.7595   -4.7000 N   0  0  0  0  0  1  0  0  0  0  0  0
   16.2190   -6.3718   -7.1265 C   0  0  0  0  0  3  0  0  0  0  0  0
   17.5389   -7.0744   -7.0544 C   0  0  0  0  0  0  0  0  0  0  0  0
   18.6580   -6.3034   -7.6809 C   0  0  0  0  0  0  0  0  0  0  0  0
   19.4264   -7.2161   -8.6036 C   0  0  0  0  0  0  0  0  0  0  0  0
   20.8906   -6.9781   -8.5094 C   0  0  0  0  0  0  0  0  0  0  0  0
   21.3825   -5.8796   -8.5688 O   0  0  0  0  0  0  0  0  0  0  0  0
  1  2  1  0
  2  3  1  0
  2  4  1  0
  4  5  1  0
  5  6  1  0
  6  7  1  0
  7  8  1  6
  7  9  1  0
  9 10  1  0
 10 11  1  0
 11 12  1  0
 12 13  1  0
 13 14  1  0
 14 15  1  0
 15 16  1  0
 16 17  1  0
 17 18  1  0
 18 19  1  1
 18 20  1  0
 20 21  1  0
 21 22  1  0
 22 23  1  0
 23 24  1  0
 24 25  2  0
M  RAD  8   9   2  12   2  13   3  14   2  15   2  16   2  19   2  20   2
M  CHG  1  19   1
M  END
>  <docking_score>  (2) 
-2.4700000000000002

$$$$

     RDKit          3D

 25 24  0  0  0  0  0  0  0  0999 V2000
   15.7279   -3.1411   -7.7092 C   0  0  0  0  0  0  0  0  0  0  0  0
   16.7933   -2.3782   -6.9639 C   0  0  0  0  0  0  0  0  0  0  0  0
   17.7326   -3.2910   -6.2142 C   0  0  0  0  0  0  0  0  0  0  0  0
   16.2250   -1.2881   -6.0991 C   0  0  0  0  0  0  0  0  0  0  0  0
   14.7645   -1.4961   -5.7849 C   0  0  0  0  0  0  0  0  0  0  0  0
   14.5396   -2.4271   -4.6377 C   0  0  0  0  0  0  0  0  0  0  0  0
   15.6715   -2.2898   -3.6652 C   0  0  1  0  0  0  0  0  0  0  0  0
   15.4658   -1.1564   -2.6867 C   0  0  0  0  0  0  0  0  0  0  0  0
   15.9486   -3.5488   -2.8906 C   0  0  0  0  0  3  0  0  0  0  0  0
   16.0585   -4.7149   -3.8572 C   0  0  0  0  0  0  0  0  0  0  0  0
   17.4333   -5.3457   -3.7740 C   0  0  0  0  0  0  0  0  0  0  0  0
   17.9122   -5.2450   -2.3532 C   0  0  0  0  0  3  0  0  0  0  0  0
   18.9851   -4.1862   -2.2745 C   0  0  0  0  0  2  0  0  0  0  0  0
   20.3330   -4.8133   -2.4115 C   0  0  0  0  0  3  0  0  0  0  0  0
   21.1631   -4.0688   -3.4177 C   0  0  0  0  0  3  0  0  0  0  0  0
   20.8369   -4.4646   -4.8273 C   0  0  0  0  0  3  0  0  0  0  0  0
   20.1293   -5.7846   -4.8800 C   0  0  0  0  0  0  0  0  0  0  0  0
   20.0077   -6.2549   -6.3097 C   0  0  1  0  0  0  0  0  0  0  0  0
   21.1186   -5.8755   -7.1320 N   0  0  0  0  0  1  0  0  0  0  0  0
   19.6111   -7.6906   -6.4329 C   0  0  0  0  0  3  0  0  0  0  0  0
   18.4263   -7.9281   -7.3165 C   0  0  0  0  0  0  0  0  0  0  0  0
   17.8289   -9.2908   -7.1567 C   0  0  0  0  0  0  0  0  0  0  0  0
   17.2201   -9.4013   -5.7811 C   0  0  0  0  0  0  0  0  0  0  0  0
   16.5144   -8.1511   -5.3962 C   0  0  0  0  0  0  0  0  0  0  0  0
   15.3166   -8.0810   -5.2841 O   0  0  0  0  0  0  0  0  0  0  0  0
  1  2  1  0
  2  3  1  0
  2  4  1  0
  4  5  1  0
  5  6  1  0
  6  7  1  0
  7  8  1  1
  7  9  1  0
  9 10  1  0
 10 11  1  0
 11 12  1  0
 12 13  1  0
 13 14  1  0
 14 15  1  0
 15 16  1  0
 16 17  1  0
 17 18  1  0
 18 19  1  1
 18 20  1  0
 20 21  1  0
 21 22  1  0
 22 23  1  0
 23 24  1  0
 24 25  2  0
M  RAD  8   9   2  12   2  13   3  14   2  15   2  16   2  19   2  20   2
M  CHG  1  19   1
M  END
>  <docking_score>  (3) 
-2.298

$$$$
