
     RDKit          3D

  9  9  0  0  0  0  0  0  0  0999 V2000
    5.4961   -2.2151   -7.0195 C   0  0  0  0  0  0  0  0  0  0  0  0
    6.7794   -1.9442   -6.5152 O   0  0  0  0  0  0  0  0  0  0  0  0
    6.5978   -1.2691   -5.3183 C   0  0  0  0  0  3  0  0  0  0  0  0
    7.2345   -0.0522   -5.2597 O   0  0  0  0  0  0  0  0  0  0  0  0
    7.0575    0.7466   -6.3607 C   0  0  2  0  0  0  0  0  0  0  0  0
    5.9139    1.7255   -6.2247 C   0  0  0  0  0  0  0  0  0  0  0  0
    6.9984    0.0106   -7.6623 C   0  0  0  0  0  3  0  0  0  0  0  0
    5.5345   -0.1857   -8.0351 C   0  0  0  0  0  3  0  0  0  0  0  0
    5.2680   -1.5320   -8.2211 O   0  0  0  0  0  0  0  0  0  0  0  0
  1  2  1  0
  2  3  1  0
  3  4  1  0
  4  5  1  0
  5  6  1  1
  5  7  1  0
  7  8  1  0
  8  9  1  0
  9  1  1  0
M  RAD  3   3   2   7   2   8   2
M  END
>  <docking_score>  (1) 
-4.0590000000000002

$$$$

     RDKit          3D

  9  9  0  0  0  0  0  0  0  0999 V2000
    9.8904   14.5127    3.2051 C   0  0  0  0  0  0  0  0  0  0  0  0
    8.8788   14.0383    4.0572 O   0  0  0  0  0  0  0  0  0  0  0  0
    8.6682   12.7110    3.7178 C   0  0  0  0  0  3  0  0  0  0  0  0
    7.3663   12.4169    3.3889 O   0  0  0  0  0  0  0  0  0  0  0  0
    6.7779   13.2959    2.5156 C   0  0  2  0  0  0  0  0  0  0  0  0
    6.8772   12.8733    1.0677 C   0  0  0  0  0  0  0  0  0  0  0  0
    7.1842   14.7243    2.6998 C   0  0  0  0  0  3  0  0  0  0  0  0
    8.2825   15.0431    1.6935 C   0  0  0  0  0  3  0  0  0  0  0  0
    9.4075   15.5125    2.3509 O   0  0  0  0  0  0  0  0  0  0  0  0
  1  2  1  0
  2  3  1  0
  3  4  1  0
  4  5  1  0
  5  6  1  6
  5  7  1  0
  7  8  1  0
  8  9  1  0
  9  1  1  0
M  RAD  3   3   2   7   2   8   2
M  END
>  <docking_score>  (2) 
-3.294

$$$$

     RDKit          3D

  9  9  0  0  0  0  0  0  0  0999 V2000
   16.9460   -5.4750   -4.1724 C   0  0  0  0  0  0  0  0  0  0  0  0
   15.7784   -4.8163   -3.7513 O   0  0  0  0  0  0  0  0  0  0  0  0
   15.8086   -3.5552   -4.3258 C   0  0  0  0  0  3  0  0  0  0  0  0
   15.7084   -2.5252   -3.4209 O   0  0  0  0  0  0  0  0  0  0  0  0
   16.5252   -2.6373   -2.3246 C   0  0  2  0  0  0  0  0  0  0  0  0
   17.8469   -1.9195   -2.4748 C   0  0  0  0  0  0  0  0  0  0  0  0
   16.7134   -4.0361   -1.8273 C   0  0  0  0  0  3  0  0  0  0  0  0
   18.0234   -4.5721   -2.3904 C   0  0  0  0  0  3  0  0  0  0  0  0
   17.7950   -5.7446   -3.0912 O   0  0  0  0  0  0  0  0  0  0  0  0
  1  2  1  0
  2  3  1  0
  3  4  1  0
  4  5  1  0
  5  6  1  6
  5  7  1  0
  7  8  1  0
  8  9  1  0
  9  1  1  0
M  RAD  3   3   2   7   2   8   2
M  END
>  <docking_score>  (3) 
-3.2890000000000001

$$$$
