
     RDKit          3D

 29 30  0  0  0  0  0  0  0  0999 V2000
    6.1914   12.7761    5.5372 C   0  0  0  0  0  0  0  0  0  0  0  0
    5.4854   13.7423    4.6152 C   0  0  1  0  0  0  0  0  0  0  0  0
    4.8321   14.8812    5.3597 C   0  0  0  0  0  0  0  0  0  0  0  0
    6.5302   14.2733    3.6452 C   0  0  0  0  0  0  0  0  0  0  0  0
    6.6870   13.2700    2.5359 C   0  0  0  0  0  0  0  0  0  0  0  0
    5.3922   12.5379    2.3273 C   0  0  0  0  0  0  0  0  0  0  0  0
    5.5963   11.3144    1.4544 C   0  0  1  0  0  0  0  0  0  0  0  0
    6.9842   11.2710    0.8674 C   0  0  0  0  0  0  0  0  0  0  0  0
    5.4019   10.0515    2.2813 C   0  0  0  0  0  3  0  0  0  0  0  0
    5.6285   10.4503    3.7297 C   0  0  0  0  0  0  0  0  0  0  0  0
    5.7882    9.2510    4.6209 C   0  0  0  0  0  0  0  0  0  0  0  0
    5.4082    9.6895    6.0306 C   0  0  2  0  0  0  0  0  0  0  0  0
    4.6835    8.5015    6.6547 C   0  0  0  0  0  0  0  0  0  0  0  0
    4.5694   10.9197    5.9828 C   0  0  1  0  0  0  0  0  0  0  0  0
    3.1692   10.7537    6.4349 C   0  0  0  0  0  0  0  0  0  0  0  0
    3.0240   10.4691    7.9039 C   0  0  1  0  0  0  0  0  0  0  0  0
    2.2603    9.1868    8.1760 C   0  0  0  0  0  0  0  0  0  0  0  0
    4.3089   10.5500    8.6588 C   0  0  0  0  0  0  0  0  0  0  0  0
    4.3343    9.6614    9.8798 C   0  0  0  0  0  0  0  0  0  0  0  0
    3.0231    9.7384   10.5950 C   0  0  1  0  0  0  0  0  0  0  0  0
    2.8605    8.7467   11.5379 O   0  0  0  0  0  0  0  0  0  0  0  0
    2.7120   11.3957   11.2922 S   0  0  0  0  0  0  0  0  0  0  0  0
    2.4426   12.5118    9.8901 C   0  0  0  0  0  0  0  0  0  0  0  0
    3.0738   13.8478   10.0836 C   0  0  0  0  0  0  0  0  0  0  0  0
    4.5597   13.8579   10.0110 C   0  0  1  0  0  0  0  0  0  0  0  0
    5.1895   12.8850   10.7407 O   0  0  0  0  0  0  0  0  0  0  0  0
    5.2231   14.1087    8.3674 S   0  0  0  0  0  0  0  0  0  0  0  0
    4.3252   13.1530    7.1059 C   0  0  0  0  0  0  0  0  0  0  0  0
    5.2603   12.1337    6.5315 C   0  0  2  0  0  0  0  0  0  0  0  0
  1  2  1  0
  2  3  1  1
  2  4  1  0
  4  5  1  0
  5  6  1  0
  6  7  1  0
  7  8  1  1
  7  9  1  0
  9 10  1  0
 10 11  1  0
 11 12  1  0
 12 13  1  6
 12 14  1  0
 14 15  1  1
 15 16  1  0
 16 17  1  6
 16 18  1  0
 18 19  1  0
 19 20  1  0
 20 21  1  1
 20 22  1  0
 22 23  1  0
 23 24  1  0
 24 25  1  0
 25 26  1  6
 25 27  1  0
 27 28  1  0
 29 28  1  6
 29  1  1  0
 29 14  1  0
M  RAD  1   9   2
M  END
>  <docking_score>  (1) 
-5.3319999999999999

$$$$

     RDKit          3D

 29 30  0  0  0  0  0  0  0  0999 V2000
   19.1774   -7.0542   -4.5697 C   0  0  0  0  0  0  0  0  0  0  0  0
   20.6649   -6.8077   -4.6620 C   0  0  1  0  0  0  0  0  0  0  0  0
   21.1523   -5.8144   -3.6353 C   0  0  0  0  0  0  0  0  0  0  0  0
   21.3501   -8.1518   -4.4662 C   0  0  0  0  0  0  0  0  0  0  0  0
   21.3487   -8.8709   -5.7870 C   0  0  0  0  0  0  0  0  0  0  0  0
   21.3820   -7.8723   -6.9084 C   0  0  0  0  0  0  0  0  0  0  0  0
   21.0592   -8.5352   -8.2338 C   0  0  1  0  0  0  0  0  0  0  0  0
   20.9926  -10.0360   -8.1073 C   0  0  0  0  0  0  0  0  0  0  0  0
   19.7071   -8.0512   -8.7378 C   0  0  0  0  0  3  0  0  0  0  0  0
   18.9527   -7.5466   -7.5193 C   0  0  0  0  0  0  0  0  0  0  0  0
   17.4933   -7.3404   -7.8117 C   0  0  0  0  0  0  0  0  0  0  0  0
   16.9775   -6.3172   -6.8061 C   0  0  2  0  0  0  0  0  0  0  0  0
   15.9732   -5.4569   -7.5658 C   0  0  0  0  0  0  0  0  0  0  0  0
   18.1083   -5.5273   -6.2434 C   0  0  1  0  0  0  0  0  0  0  0  0
   18.1243   -4.0916   -6.6054 C   0  0  0  0  0  0  0  0  0  0  0  0
   17.0023   -3.2908   -6.0055 C   0  0  1  0  0  0  0  0  0  0  0  0
   16.1783   -2.5670   -7.0537 C   0  0  0  0  0  0  0  0  0  0  0  0
   16.1650   -4.0630   -5.0413 C   0  0  0  0  0  0  0  0  0  0  0  0
   14.7412   -3.5651   -4.9636 C   0  0  0  0  0  0  0  0  0  0  0  0
   14.7224   -2.0696   -4.9630 C   0  0  1  0  0  0  0  0  0  0  0  0
   13.4696   -1.5428   -5.1907 O   0  0  0  0  0  0  0  0  0  0  0  0
   15.4913   -1.3690   -3.4638 S   0  0  0  0  0  0  0  0  0  0  0  0
   17.2653   -1.7235   -3.5703 C   0  0  0  0  0  0  0  0  0  0  0  0
   17.8588   -2.1087   -2.2587 C   0  0  0  0  0  0  0  0  0  0  0  0
   17.4587   -3.4510   -1.7572 C   0  0  1  0  0  0  0  0  0  0  0  0
   16.1171   -3.7212   -1.8097 O   0  0  0  0  0  0  0  0  0  0  0  0
   18.5143   -4.7923   -2.2965 S   0  0  0  0  0  0  0  0  0  0  0  0
   18.9692   -4.6511   -4.0526 C   0  0  0  0  0  0  0  0  0  0  0  0
   18.3650   -5.8056   -4.7912 C   0  0  2  0  0  0  0  0  0  0  0  0
  1  2  1  0
  2  3  1  1
  2  4  1  0
  4  5  1  0
  5  6  1  0
  6  7  1  0
  7  8  1  1
  7  9  1  0
  9 10  1  0
 10 11  1  0
 11 12  1  0
 12 13  1  6
 12 14  1  0
 14 15  1  1
 15 16  1  0
 16 17  1  6
 16 18  1  0
 18 19  1  0
 19 20  1  0
 20 21  1  1
 20 22  1  0
 22 23  1  0
 23 24  1  0
 24 25  1  0
 25 26  1  6
 25 27  1  0
 27 28  1  0
 29 28  1  6
 29  1  1  0
 29 14  1  0
M  RAD  1   9   2
M  END
>  <docking_score>  (2) 
-5.1079999999999997

$$$$

     RDKit          3D

 29 30  0  0  0  0  0  0  0  0999 V2000
    3.0724   10.6018    7.0043 C   0  0  0  0  0  0  0  0  0  0  0  0
    3.4893   10.0516    8.3480 C   0  0  1  0  0  0  0  0  0  0  0  0
    3.9456   11.1307    9.2996 C   0  0  0  0  0  0  0  0  0  0  0  0
    2.2860    9.3159    8.9185 C   0  0  0  0  0  0  0  0  0  0  0  0
    2.2578    7.9367    8.3198 C   0  0  0  0  0  0  0  0  0  0  0  0
    3.6570    7.4932    8.0013 C   0  0  0  0  0  0  0  0  0  0  0  0
    3.6465    6.2637    7.1131 C   0  0  1  0  0  0  0  0  0  0  0  0
    2.2575    5.6993    6.9552 C   0  0  0  0  0  0  0  0  0  0  0  0
    4.1622    6.6233    5.7270 C   0  0  0  0  0  3  0  0  0  0  0  0
    3.9684    8.1225    5.5748 C   0  0  0  0  0  0  0  0  0  0  0  0
    4.1304    8.5646    4.1478 C   0  0  0  0  0  0  0  0  0  0  0  0
    4.5170   10.0390    4.1792 C   0  0  2  0  0  0  0  0  0  0  0  0
    5.5186   10.2308    3.0453 C   0  0  0  0  0  0  0  0  0  0  0  0
    5.0748   10.4007    5.5124 C   0  0  1  0  0  0  0  0  0  0  0  0
    6.5091   10.7683    5.5240 C   0  0  0  0  0  0  0  0  0  0  0  0
    6.8218   12.0588    4.8190 C   0  0  1  0  0  0  0  0  0  0  0  0
    7.8544   11.8871    3.7210 C   0  0  0  0  0  0  0  0  0  0  0  0
    5.6096   12.8009    4.3641 C   0  0  0  0  0  0  0  0  0  0  0  0
    5.8630   13.6571    3.1460 C   0  0  0  0  0  0  0  0  0  0  0  0
    7.1799   14.3538    3.2763 C   0  0  1  0  0  0  0  0  0  0  0  0
    7.6169   14.9130    2.0950 O   0  0  0  0  0  0  0  0  0  0  0  0
    7.1909   15.5615    4.6440 S   0  0  0  0  0  0  0  0  0  0  0  0
    7.1143   14.6095    6.1841 C   0  0  0  0  0  0  0  0  0  0  0  0
    6.2351   15.2378    7.2104 C   0  0  0  0  0  0  0  0  0  0  0  0
    4.7786   15.1765    6.9135 C   0  0  1  0  0  0  0  0  0  0  0  0
    4.4228   15.5429    5.6428 O   0  0  0  0  0  0  0  0  0  0  0  0
    3.9544   13.7115    7.5289 S   0  0  0  0  0  0  0  0  0  0  0  0
    4.9330   12.2017    7.2573 C   0  0  0  0  0  0  0  0  0  0  0  0
    4.1899   11.3235    6.2981 C   0  0  2  0  0  0  0  0  0  0  0  0
  1  2  1  0
  2  3  1  1
  2  4  1  0
  4  5  1  0
  5  6  1  0
  6  7  1  0
  7  8  1  6
  7  9  1  0
  9 10  1  0
 10 11  1  0
 11 12  1  0
 12 13  1  6
 12 14  1  0
 14 15  1  6
 15 16  1  0
 16 17  1  6
 16 18  1  0
 18 19  1  0
 19 20  1  0
 20 21  1  6
 20 22  1  0
 22 23  1  0
 23 24  1  0
 24 25  1  0
 25 26  1  6
 25 27  1  0
 27 28  1  0
 29 28  1  1
 29  1  1  0
 29 14  1  0
M  RAD  1   9   2
M  END
>  <docking_score>  (3) 
-5.0259999999999998

$$$$
