
     RDKit          3D

 22 24  0  0  0  0  0  0  0  0999 V2000
   17.0905  -12.4420   -7.5537 C   0  0  0  0  0  0  0  0  0  0  0  0
   17.7864  -11.1133   -7.5673 O   0  0  0  0  0  0  0  0  0  0  0  0
   17.3631  -10.0351   -6.6143 C   0  0  0  0  0  0  0  0  0  0  0  0
   17.7024   -8.6029   -6.9034 C   0  0  0  0  0  0  0  0  0  0  0  0
   17.2791   -7.5247   -5.9502 C   0  0  0  0  0  0  0  0  0  0  0  0
   17.9607   -6.1887   -5.9785 C   0  0  0  0  0  0  0  0  0  0  0  0
   17.5373   -5.1106   -5.0254 C   0  0  0  0  0  0  0  0  0  0  0  0
   17.9620   -5.3923   -3.6146 C   0  0  0  0  0  0  0  0  0  0  0  0
   18.7105   -6.6861   -3.4880 C   0  0  0  0  0  0  0  0  0  0  0  0
   17.8140   -4.6839   -2.3007 C   0  0  0  0  0  0  0  0  0  0  0  0
   17.1798   -3.4003   -1.8534 C   0  0  0  0  0  0  0  0  0  0  0  0
   16.4311   -2.2934   -2.5347 C   0  0  0  0  0  0  0  0  0  0  0  0
   16.0063   -2.0116   -3.9454 C   0  0  0  0  0  0  0  0  0  0  0  0
   15.3916   -1.3110   -5.1207 C   0  0  0  0  0  0  0  0  0  0  0  0
   15.4188   -2.2320   -7.7028 C   0  0  0  0  0  0  0  0  0  0  0  0
   16.0529   -3.5157   -8.1501 C   0  0  0  0  0  0  0  0  0  0  0  0
   16.7378   -4.4015   -7.1520 C   0  0  0  0  0  0  0  0  0  0  0  0
   16.7886   -4.0037   -5.7066 C   0  0  0  0  0  0  0  0  0  0  0  0
   16.1544   -2.7200   -5.2593 C   0  0  0  0  0  0  0  0  0  0  0  0
   15.4695   -1.8342   -6.2574 C   0  0  0  0  0  0  0  0  0  0  0  0
   14.8353   -0.5505   -5.8101 C   0  0  0  0  0  0  0  0  0  0  0  0
   13.5839   -0.5803   -4.9836 C   0  0  0  0  0  0  0  0  0  0  0  0
  1  2  1  0
  2  3  1  0
  3  4  2  3
  4  5  1  0
  5  6  2  3
  6  7  1  0
  7  8  2  3
  8  9  1  0
  8 10  1  0
 10 11  2  3
 11 12  1  0
 12 13  2  3
 13 14  1  0
 14 15  2  0
 15 16  1  0
 16 17  2  0
 17 18  1  0
 18 19  2  0
 19 20  1  0
 20 21  1  0
 21 22  1  0
 18  7  1  0
 19 13  1  0
 20 15  1  0
M  END
>  <docking_score>  (1) 
-5.7629999999999999

$$$$

     RDKit          3D

 22 24  0  0  0  0  0  0  0  0999 V2000
    9.1107   15.5526    1.7655 C   0  0  0  0  0  0  0  0  0  0  0  0
    8.2264   15.6856    2.9697 O   0  0  0  0  0  0  0  0  0  0  0  0
    7.6592   14.4601    3.6227 C   0  0  0  0  0  0  0  0  0  0  0  0
    7.8861   13.1102    3.0093 C   0  0  0  0  0  0  0  0  0  0  0  0
    7.3189   11.8847    3.6624 C   0  0  0  0  0  0  0  0  0  0  0  0
    5.8328   11.7163    3.7782 C   0  0  0  0  0  0  0  0  0  0  0  0
    5.2657   10.4907    4.4313 C   0  0  0  0  0  0  0  0  0  0  0  0
    5.1411    9.3384    3.4791 C   0  0  0  0  0  0  0  0  0  0  0  0
    5.6128    9.6820    2.0972 C   0  0  0  0  0  0  0  0  0  0  0  0
    4.6554    7.9231    3.5844 C   0  0  0  0  0  0  0  0  0  0  0  0
    4.0932    7.0739    4.6856 C   0  0  0  0  0  0  0  0  0  0  0  0
    3.7837    7.2883    6.1376 C   0  0  0  0  0  0  0  0  0  0  0  0
    3.9084    8.4405    7.0898 C   0  0  0  0  0  0  0  0  0  0  0  0
    3.8348    9.2363    8.3592 C   0  0  0  0  0  0  0  0  0  0  0  0
    4.6099   11.8516    8.6337 C   0  0  0  0  0  0  0  0  0  0  0  0
    5.1721   12.7008    7.5326 C   0  0  0  0  0  0  0  0  0  0  0  0
    5.3453   12.1275    6.1573 C   0  0  0  0  0  0  0  0  0  0  0  0
    4.9563   10.7050    5.8833 C   0  0  0  0  0  0  0  0  0  0  0  0
    4.3940    9.8558    6.9845 C   0  0  0  0  0  0  0  0  0  0  0  0
    4.2209   10.4291    8.3597 C   0  0  0  0  0  0  0  0  0  0  0  0
    3.6586    9.5798    9.4610 C   0  0  0  0  0  0  0  0  0  0  0  0
    4.5685    9.0139   10.5107 C   0  0  0  0  0  0  0  0  0  0  0  0
  1  2  1  0
  2  3  1  0
  3  4  2  3
  4  5  1  0
  5  6  2  3
  6  7  1  0
  7  8  2  3
  8  9  1  0
  8 10  1  0
 10 11  2  3
 11 12  1  0
 12 13  2  3
 13 14  1  0
 14 15  2  0
 15 16  1  0
 16 17  2  0
 17 18  1  0
 18 19  2  0
 19 20  1  0
 20 21  1  0
 21 22  1  0
 18  7  1  0
 19 13  1  0
 20 15  1  0
M  END
>  <docking_score>  (2) 
-5.0430000000000001

$$$$

     RDKit          3D

 22 24  0  0  0  0  0  0  0  0999 V2000
   13.4179    0.1809   -4.4970 C   0  0  0  0  0  0  0  0  0  0  0  0
   14.3796   -0.3711   -3.4869 O   0  0  0  0  0  0  0  0  0  0  0  0
   15.2333   -1.5549   -3.8328 C   0  0  0  0  0  0  0  0  0  0  0  0
   16.6669   -1.5996   -3.3940 C   0  0  0  0  0  0  0  0  0  0  0  0
   17.5207   -2.7835   -3.7400 C   0  0  0  0  0  0  0  0  0  0  0  0
   17.5571   -3.9739   -2.8282 C   0  0  0  0  0  0  0  0  0  0  0  0
   18.4108   -5.1577   -3.1742 C   0  0  0  0  0  0  0  0  0  0  0  0
   19.8025   -5.0415   -2.6265 C   0  0  0  0  0  0  0  0  0  0  0  0
   20.0138   -3.7688   -1.8613 C   0  0  0  0  0  0  0  0  0  0  0  0
   21.0324   -5.8994   -2.6645 C   0  0  0  0  0  0  0  0  0  0  0  0
   21.3801   -7.2288   -3.2658 C   0  0  0  0  0  0  0  0  0  0  0  0
   20.6419   -8.2511   -4.0783 C   0  0  0  0  0  0  0  0  0  0  0  0
   19.2503   -8.3673   -4.6260 C   0  0  0  0  0  0  0  0  0  0  0  0
   18.0592   -8.9278   -5.3452 C   0  0  0  0  0  0  0  0  0  0  0  0
   15.6101   -7.7107   -5.5366 C   0  0  0  0  0  0  0  0  0  0  0  0
   15.2624   -6.3813   -4.9352 C   0  0  0  0  0  0  0  0  0  0  0  0
   16.2937   -5.6160   -4.1603 C   0  0  0  0  0  0  0  0  0  0  0  0
   17.6727   -6.1800   -3.9867 C   0  0  0  0  0  0  0  0  0  0  0  0
   18.0204   -7.5095   -4.5880 C   0  0  0  0  0  0  0  0  0  0  0  0
   16.9891   -8.2748   -5.3630 C   0  0  0  0  0  0  0  0  0  0  0  0
   17.3368   -9.6043   -5.9643 C   0  0  0  0  0  0  0  0  0  0  0  0
   17.9847   -9.6699   -7.3156 C   0  0  0  0  0  0  0  0  0  0  0  0
  1  2  1  0
  2  3  1  0
  3  4  2  3
  4  5  1  0
  5  6  2  3
  6  7  1  0
  7  8  2  3
  8  9  1  0
  8 10  1  0
 10 11  2  3
 11 12  1  0
 12 13  2  3
 13 14  1  0
 14 15  2  0
 15 16  1  0
 16 17  2  0
 17 18  1  0
 18 19  2  0
 19 20  1  0
 20 21  1  0
 21 22  1  0
 18  7  1  0
 19 13  1  0
 20 15  1  0
M  END
>  <docking_score>  (3) 
-5.032

$$$$
