
     RDKit          3D

  9  8  0  0  0  0  0  0  0  0999 V2000
    6.4536   -0.2411   -8.0176 C   0  0  0  0  0  0  0  0  0  0  0  0
    5.4457   -0.6847   -7.2403 O   0  0  0  0  0  0  0  0  0  0  0  0
    5.6872   -1.7094   -6.2527 C   0  0  0  0  0  3  0  0  0  0  0  0
    5.8758   -2.7378   -7.2516 O   0  0  0  0  0  0  0  0  0  0  0  0
    5.1445   -3.9683   -6.7473 C   0  0  2  0  0  0  0  0  0  0  0  0
    5.6972   -5.0721   -7.8614 C   0  0  0  0  0  0  0  0  0  0  0  0
    3.9463   -3.6521   -7.6210 O   0  0  0  0  0  0  0  0  0  0  0  0
    3.2489   -4.7358   -7.9869 C   0  0  0  0  0  3  0  0  0  0  0  0
    2.2597   -5.3706   -7.3710 O   0  0  0  0  0  0  0  0  0  0  0  0
  1  2  1  0
  2  3  1  0
  3  4  1  0
  4  5  1  0
  5  6  1  6
  5  7  1  0
  7  8  1  0
  8  9  1  0
M  RAD  2   3   2   8   2
M  END
>  <docking_score>  (1) 
-2.835

$$$$

     RDKit          3D

  9  8  0  0  0  0  0  0  0  0999 V2000
   15.7632   -2.3430   -3.4797 C   0  0  0  0  0  0  0  0  0  0  0  0
   15.5383   -3.0230   -4.6216 O   0  0  0  0  0  0  0  0  0  0  0  0
   14.4438   -2.6499   -5.4855 C   0  0  0  0  0  3  0  0  0  0  0  0
   13.8063   -3.9423   -5.3666 O   0  0  0  0  0  0  0  0  0  0  0  0
   14.6797   -4.9255   -6.1239 C   0  0  2  0  0  0  0  0  0  0  0  0
   13.6113   -5.3476   -7.3262 C   0  0  0  0  0  0  0  0  0  0  0  0
   14.1937   -6.0715   -5.2582 O   0  0  0  0  0  0  0  0  0  0  0  0
   15.1550   -6.6159   -4.5005 C   0  0  0  0  0  3  0  0  0  0  0  0
   16.1112   -6.0427   -3.7808 O   0  0  0  0  0  0  0  0  0  0  0  0
  1  2  1  0
  2  3  1  0
  3  4  1  0
  4  5  1  0
  5  6  1  6
  5  7  1  0
  7  8  1  0
  8  9  1  0
M  RAD  2   3   2   8   2
M  END
>  <docking_score>  (2) 
-2.5840000000000001

$$$$

     RDKit          3D

  9  8  0  0  0  0  0  0  0  0999 V2000
   13.2303   -5.3253   -8.0793 C   0  0  0  0  0  0  0  0  0  0  0  0
   14.0743   -4.8913   -7.1223 O   0  0  0  0  0  0  0  0  0  0  0  0
   13.7884   -5.1478   -5.7309 C   0  0  0  0  0  3  0  0  0  0  0  0
   13.8748   -3.7492   -5.3742 O   0  0  0  0  0  0  0  0  0  0  0  0
   15.3295   -3.3505   -5.5411 C   0  0  2  0  0  0  0  0  0  0  0  0
   15.6883   -3.0108   -3.9534 C   0  0  0  0  0  0  0  0  0  0  0  0
   14.9377   -1.9063   -5.7854 O   0  0  0  0  0  0  0  0  0  0  0  0
   14.3391   -1.3284   -4.7355 C   0  0  0  0  0  3  0  0  0  0  0  0
   13.2381   -0.5904   -4.6718 O   0  0  0  0  0  0  0  0  0  0  0  0
  1  2  1  0
  2  3  1  0
  3  4  1  0
  4  5  1  0
  5  6  1  1
  5  7  1  0
  7  8  1  0
  8  9  1  0
M  RAD  2   3   2   8   2
M  END
>  <docking_score>  (3) 
-2.5449999999999999

$$$$
