
     RDKit          3D

 26 26  0  0  0  0  0  0  0  0999 V2000
   20.1471   -0.8732   -1.4476 C   0  0  0  0  0  0  0  0  0  0  0  0
   19.6434   -0.8859   -2.8538 C   0  0  0  0  0  3  0  0  0  0  0  0
   19.0560   -2.2167   -3.2710 C   0  0  1  0  0  0  0  0  0  0  0  0
   18.5938   -2.9378   -2.0503 C   0  0  2  0  0  0  0  0  0  0  0  0
   19.0447   -4.2739   -2.1644 O   0  0  0  0  0  0  0  0  0  0  0  0
   17.1455   -2.9622   -1.8084 C   0  0  2  0  0  0  0  0  0  0  0  0
   16.5870   -4.2311   -1.9600 O   0  0  0  0  0  0  0  0  0  0  0  0
   16.3160   -1.9645   -2.5237 C   0  0  1  0  0  0  0  0  0  0  0  0
   15.6768   -1.1433   -1.5974 O   0  0  0  0  0  0  0  0  0  0  0  0
   16.9955   -1.1547   -3.4110 O   0  0  0  0  0  0  0  0  0  0  0  0
   17.8628   -1.9609   -4.1332 C   0  0  1  0  0  0  0  0  0  0  0  0
   18.1711   -1.4502   -5.4944 C   0  0  0  0  0  3  0  0  0  0  0  0
   18.2322   -2.6297   -6.4422 C   0  0  0  0  0  0  0  0  0  0  0  0
   17.1476   -2.5526   -7.4948 C   0  0  1  0  0  0  0  0  0  0  0  0
   17.6122   -2.1982   -8.7400 O   0  0  0  0  0  0  0  0  0  0  0  0
   16.3329   -3.7991   -7.5707 C   0  0  0  0  0  0  0  0  0  0  0  0
   15.1093   -3.6184   -6.9430 O   0  0  0  0  0  0  0  0  0  0  0  0
   15.1795   -4.1482   -5.7514 O   0  0  0  0  0  0  0  0  0  0  0  0
   14.3098   -5.2426   -5.6345 C   0  0  1  0  0  0  0  0  0  0  0  0
   13.6120   -5.4705   -6.8028 O   0  0  0  0  0  0  0  0  0  0  0  0
   15.0803   -6.4894   -5.2560 C   0  0  2  0  0  0  0  0  0  0  0  0
   14.3321   -7.2656   -4.3759 O   0  0  0  0  0  0  0  0  0  0  0  0
   16.4521   -6.1908   -4.7463 C   0  0  0  0  0  3  0  0  0  0  0  0
   17.4398   -7.2712   -5.0936 C   0  0  0  0  0  0  0  0  0  0  0  0
   18.7665   -7.0101   -4.4125 C   0  0  0  0  0  3  0  0  0  0  0  0
   19.2328   -8.2516   -3.9585 O   0  0  0  0  0  0  0  0  0  0  0  0
  1  2  1  0
  3  2  1  1
  3  4  1  0
  4  5  1  6
  4  6  1  0
  6  7  1  6
  6  8  1  0
  8  9  1  1
  8 10  1  0
 10 11  1  0
 11 12  1  6
 12 13  1  0
 13 14  1  0
 14 15  1  6
 14 16  1  0
 16 17  1  0
 17 18  1  0
 18 19  1  0
 19 20  1  6
 19 21  1  0
 21 22  1  1
 21 23  1  0
 23 24  1  0
 24 25  1  0
 25 26  1  0
 11  3  1  0
M  RAD  4   2   2  12   2  23   2  25   2
M  END
>  <docking_score>  (1) 
-4.234

$$$$

     RDKit          3D

 26 26  0  0  0  0  0  0  0  0999 V2000
    5.6973   14.2547    5.5023 C   0  0  0  0  0  0  0  0  0  0  0  0
    7.1333   14.3588    5.1042 C   0  0  0  0  0  3  0  0  0  0  0  0
    7.3564   14.2206    3.6138 C   0  0  1  0  0  0  0  0  0  0  0  0
    7.8969   15.5083    3.0909 C   0  0  2  0  0  0  0  0  0  0  0  0
    7.1798   15.8074    1.9086 O   0  0  0  0  0  0  0  0  0  0  0  0
    9.3312   15.5418    2.7776 C   0  0  2  0  0  0  0  0  0  0  0  0
    9.5902   15.6456    1.4112 O   0  0  0  0  0  0  0  0  0  0  0  0
   10.1847   14.4839    3.3671 C   0  0  1  0  0  0  0  0  0  0  0  0
   11.1399   15.0675    4.1966 O   0  0  0  0  0  0  0  0  0  0  0  0
    9.5175   13.5226    4.0990 O   0  0  0  0  0  0  0  0  0  0  0  0
    8.3857   13.1624    3.3828 C   0  0  1  0  0  0  0  0  0  0  0  0
    7.9246   11.7730    3.6392 C   0  0  0  0  0  3  0  0  0  0  0  0
    7.0080   11.3598    2.5068 C   0  0  0  0  0  0  0  0  0  0  0  0
    5.6149   11.0447    3.0072 C   0  0  1  0  0  0  0  0  0  0  0  0
    4.6152   11.5258    2.1940 O   0  0  0  0  0  0  0  0  0  0  0  0
    5.4191    9.5922    3.2812 C   0  0  0  0  0  0  0  0  0  0  0  0
    5.5713    9.3285    4.6344 O   0  0  0  0  0  0  0  0  0  0  0  0
    4.3834    9.2002    5.1615 O   0  0  0  0  0  0  0  0  0  0  0  0
    4.4431    9.2695    6.5613 C   0  0  1  0  0  0  0  0  0  0  0  0
    4.2484   10.5561    7.0201 O   0  0  0  0  0  0  0  0  0  0  0  0
    3.4092    8.3522    7.1785 C   0  0  2  0  0  0  0  0  0  0  0  0
    3.9720    7.6363    8.2311 O   0  0  0  0  0  0  0  0  0  0  0  0
    2.7374    7.4760    6.1727 C   0  0  0  0  0  3  0  0  0  0  0  0
    3.4566    6.1685    5.9809 C   0  0  0  0  0  0  0  0  0  0  0  0
    2.9607    5.4736    4.7305 C   0  0  0  0  0  3  0  0  0  0  0  0
    2.2582    4.3383    5.1573 O   0  0  0  0  0  0  0  0  0  0  0  0
  1  2  1  0
  3  2  1  1
  3  4  1  0
  4  5  1  6
  4  6  1  0
  6  7  1  6
  6  8  1  0
  8  9  1  1
  8 10  1  0
 10 11  1  0
 11 12  1  1
 12 13  1  0
 13 14  1  0
 14 15  1  6
 14 16  1  0
 16 17  1  0
 17 18  1  0
 18 19  1  0
 19 20  1  6
 19 21  1  0
 21 22  1  1
 21 23  1  0
 23 24  1  0
 24 25  1  0
 25 26  1  0
 11  3  1  0
M  RAD  4   2   2  12   2  23   2  25   2
M  END
>  <docking_score>  (2) 
-3.843

$$$$

     RDKit          3D

 26 26  0  0  0  0  0  0  0  0999 V2000
   15.4022   -5.3130   -8.7399 C   0  0  0  0  0  0  0  0  0  0  0  0
   16.5655   -4.9581   -7.8725 C   0  0  0  0  0  3  0  0  0  0  0  0
   16.1887   -4.7261   -6.4253 C   0  0  1  0  0  0  0  0  0  0  0  0
   15.0405   -5.6139   -6.0831 C   0  0  2  0  0  0  0  0  0  0  0  0
   14.1046   -4.8239   -5.3748 O   0  0  0  0  0  0  0  0  0  0  0  0
   15.3441   -6.8007   -5.2731 C   0  0  2  0  0  0  0  0  0  0  0  0
   14.8155   -6.7331   -3.9843 O   0  0  0  0  0  0  0  0  0  0  0  0
   16.7572   -7.2415   -5.2092 C   0  0  1  0  0  0  0  0  0  0  0  0
   16.8665   -8.5260   -5.7375 O   0  0  0  0  0  0  0  0  0  0  0  0
   17.6612   -6.4332   -5.8682 O   0  0  0  0  0  0  0  0  0  0  0  0
   17.3452   -5.1175   -5.5639 C   0  0  1  0  0  0  0  0  0  0  0  0
   18.5054   -4.1900   -5.6130 C   0  0  0  0  0  3  0  0  0  0  0  0
   19.7495   -4.9643   -5.2312 C   0  0  0  0  0  0  0  0  0  0  0  0
   20.9618   -4.0619   -5.1502 C   0  0  1  0  0  0  0  0  0  0  0  0
   20.9454   -3.0336   -6.0637 O   0  0  0  0  0  0  0  0  0  0  0  0
   21.1975   -3.5408   -3.7733 C   0  0  0  0  0  0  0  0  0  0  0  0
   21.0267   -2.1647   -3.7390 O   0  0  0  0  0  0  0  0  0  0  0  0
   19.8790   -1.9098   -3.1705 O   0  0  0  0  0  0  0  0  0  0  0  0
   19.7108   -2.6775   -2.0085 C   0  0  1  0  0  0  0  0  0  0  0  0
   20.2326   -2.0475   -0.8973 O   0  0  0  0  0  0  0  0  0  0  0  0
   18.2436   -2.9711   -1.7791 C   0  0  2  0  0  0  0  0  0  0  0  0
   17.9489   -4.2731   -2.1727 O   0  0  0  0  0  0  0  0  0  0  0  0
   17.3444   -1.9564   -2.4058 C   0  0  0  0  0  3  0  0  0  0  0  0
   16.1913   -2.5874   -3.1378 C   0  0  0  0  0  0  0  0  0  0  0  0
   15.8210   -1.7592   -4.3499 C   0  0  0  0  0  3  0  0  0  0  0  0
   14.4374   -1.5460   -4.2795 O   0  0  0  0  0  0  0  0  0  0  0  0
  1  2  1  0
  3  2  1  6
  3  4  1  0
  4  5  1  1
  4  6  1  0
  6  7  1  1
  6  8  1  0
  8  9  1  6
  8 10  1  0
 10 11  1  0
 11 12  1  6
 12 13  1  0
 13 14  1  0
 14 15  1  6
 14 16  1  0
 16 17  1  0
 17 18  1  0
 18 19  1  0
 19 20  1  1
 19 21  1  0
 21 22  1  6
 21 23  1  0
 23 24  1  0
 24 25  1  0
 25 26  1  0
 11  3  1  0
M  RAD  4   2   2  12   2  23   2  25   2
M  END
>  <docking_score>  (3) 
-3.8159999999999998

$$$$
