
     RDKit          3D

 24 23  0  0  0  0  0  0  0  0999 V2000
   14.5446    0.2733   -5.5619 C   0  0  0  0  0  0  0  0  0  0  0  0
   15.0373   -1.0977   -5.8239 C   0  0  0  0  0  0  0  0  0  0  0  0
   15.2678   -1.9614   -4.8456 C   0  0  0  0  0  0  0  0  0  0  0  0
   15.7530   -3.3106   -5.1090 C   0  0  0  0  0  0  0  0  0  0  0  0
   16.4166   -3.5924   -6.2178 C   0  0  0  0  0  0  0  0  0  0  0  0
   16.8740   -4.9922   -6.4049 C   0  0  1  0  0  0  0  0  0  0  0  0
   17.6807   -5.1444   -7.5194 O   0  0  0  0  0  0  0  0  0  0  0  0
   17.7342   -5.3410   -5.1875 C   0  0  0  0  0  0  0  0  0  0  0  0
   17.2126   -6.6186   -4.5801 C   0  0  1  0  0  0  0  0  0  0  0  0
   15.9922   -6.9352   -5.1784 O   0  0  0  0  0  0  0  0  0  0  0  0
   18.1861   -7.7214   -4.8872 C   0  0  0  0  0  0  0  0  0  0  0  0
   17.6113   -8.6789   -5.8393 C   0  0  0  0  0  0  0  0  0  0  0  0
   17.1298   -9.7558   -5.4131 O   0  0  0  0  0  0  0  0  0  0  0  0
   17.5666   -8.4637   -7.2025 O   0  0  0  0  0  1  0  0  0  0  0  0
   15.0251   -1.5396   -3.4575 C   0  0  0  0  0  0  0  0  0  0  0  0
   16.2792   -1.8369   -2.6868 C   0  0  0  0  0  0  0  0  0  0  0  0
   16.4860   -3.0986   -2.3554 C   0  0  0  0  0  0  0  0  0  0  0  0
   17.6947   -3.4137   -1.6077 C   0  0  0  0  0  0  0  0  0  0  0  0
   18.8745   -3.0591   -2.0833 C   0  0  0  0  0  0  0  0  0  0  0  0
   19.9992   -3.3495   -1.3927 F   0  0  0  0  0  0  0  0  0  0  0  0
   18.9815   -2.3593   -3.3420 C   0  0  0  0  0  0  0  0  0  0  0  0
   19.9079   -1.4483   -3.5908 C   0  0  0  0  0  0  0  0  0  0  0  0
   20.0452   -0.5885   -5.1272 S   0  0  0  0  0  0  0  0  0  0  0  0
   20.1662    1.1666   -4.8715 N   0  0  0  0  0  0  0  0  0  0  0  0
  1  2  1  0
  2  3  2  3
  3  4  1  0
  4  5  2  3
  5  6  1  0
  6  7  1  6
  6  8  1  0
  8  9  1  0
  9 10  1  6
  9 11  1  0
 11 12  1  0
 12 13  2  0
 12 14  1  0
  3 15  1  0
 15 16  1  0
 16 17  2  3
 17 18  1  0
 18 19  2  3
 19 20  1  0
 19 21  1  0
 21 22  2  3
 22 23  1  0
 23 24  1  0
M  CHG  1  14  -1
M  END
>  <docking_score>  (1) 
-4.2389999999999999

$$$$

     RDKit          3D

 24 23  0  0  0  0  0  0  0  0999 V2000
   19.3490   -2.6009   -1.6320 C   0  0  0  0  0  0  0  0  0  0  0  0
   18.9869   -3.7789   -2.4520 C   0  0  0  0  0  0  0  0  0  0  0  0
   17.7497   -4.2517   -2.4965 C   0  0  0  0  0  0  0  0  0  0  0  0
   17.3982   -5.4122   -3.3057 C   0  0  0  0  0  0  0  0  0  0  0  0
   16.2779   -5.4399   -4.0079 C   0  0  0  0  0  0  0  0  0  0  0  0
   15.9989   -6.6615   -4.8039 C   0  0  1  0  0  0  0  0  0  0  0  0
   14.7949   -7.2545   -4.4650 O   0  0  0  0  0  0  0  0  0  0  0  0
   15.8758   -6.2175   -6.2637 C   0  0  0  0  0  0  0  0  0  0  0  0
   17.0670   -6.7387   -7.0271 C   0  0  1  0  0  0  0  0  0  0  0  0
   18.0690   -5.7674   -7.0143 O   0  0  0  0  0  0  0  0  0  0  0  0
   17.5866   -7.9584   -6.3197 C   0  0  0  0  0  0  0  0  0  0  0  0
   19.0030   -8.1824   -6.6312 C   0  0  0  0  0  0  0  0  0  0  0  0
   19.8821   -7.6850   -5.8875 O   0  0  0  0  0  0  0  0  0  0  0  0
   19.4371   -8.9215   -7.7139 O   0  0  0  0  0  1  0  0  0  0  0  0
   16.7071   -3.5813   -1.7043 C   0  0  0  0  0  0  0  0  0  0  0  0
   16.3059   -2.3507   -2.4658 C   0  0  0  0  0  0  0  0  0  0  0  0
   15.4830   -2.5260   -3.4839 C   0  0  0  0  0  0  0  0  0  0  0  0
   15.0785   -1.3488   -4.2389 C   0  0  0  0  0  0  0  0  0  0  0  0
   15.7960   -0.9516   -5.2739 C   0  0  0  0  0  0  0  0  0  0  0  0
   15.4244    0.1405   -5.9776 F   0  0  0  0  0  0  0  0  0  0  0  0
   16.9827   -1.6738   -5.6684 C   0  0  0  0  0  0  0  0  0  0  0  0
   17.3980   -1.7607   -6.9214 C   0  0  0  0  0  0  0  0  0  0  0  0
   18.8478   -2.6417   -7.4115 S   0  0  0  0  0  0  0  0  0  0  0  0
   20.3048   -1.6441   -7.2063 N   0  0  0  0  0  0  0  0  0  0  0  0
  1  2  1  0
  2  3  2  3
  3  4  1  0
  4  5  2  3
  5  6  1  0
  6  7  1  1
  6  8  1  0
  8  9  1  0
  9 10  1  1
  9 11  1  0
 11 12  1  0
 12 13  2  0
 12 14  1  0
  3 15  1  0
 15 16  1  0
 16 17  2  3
 17 18  1  0
 18 19  2  3
 19 20  1  0
 19 21  1  0
 21 22  2  3
 22 23  1  0
 23 24  1  0
M  CHG  1  14  -1
M  END
>  <docking_score>  (2) 
-3.9940000000000002

$$$$

     RDKit          3D

 24 23  0  0  0  0  0  0  0  0999 V2000
   16.5615   -3.9631   -1.3446 C   0  0  0  0  0  0  0  0  0  0  0  0
   16.9283   -5.0449   -2.2861 C   0  0  0  0  0  0  0  0  0  0  0  0
   18.1883   -5.3022   -2.6058 C   0  0  0  0  0  0  0  0  0  0  0  0
   18.5442   -6.3687   -3.5336 C   0  0  0  0  0  0  0  0  0  0  0  0
   19.8043   -6.5876   -3.8701 C   0  0  0  0  0  0  0  0  0  0  0  0
   20.0767   -7.6945   -4.8210 C   0  0  1  0  0  0  0  0  0  0  0  0
   20.8855   -8.6772   -4.2769 O   0  0  0  0  0  0  0  0  0  0  0  0
   18.7293   -8.3530   -5.1282 C   0  0  0  0  0  0  0  0  0  0  0  0
   18.4034   -8.1261   -6.5827 C   0  0  1  0  0  0  0  0  0  0  0  0
   17.9754   -9.3315   -7.1407 O   0  0  0  0  0  0  0  0  0  0  0  0
   17.2711   -7.1417   -6.6668 C   0  0  0  0  0  0  0  0  0  0  0  0
   17.6411   -5.9853   -7.4911 C   0  0  0  0  0  0  0  0  0  0  0  0
   17.5565   -6.0682   -8.7398 O   0  0  0  0  0  0  0  0  0  0  0  0
   18.0853   -4.7874   -6.9672 O   0  0  0  0  0  1  0  0  0  0  0  0
   19.2523   -4.4842   -2.0035 C   0  0  0  0  0  0  0  0  0  0  0  0
   19.7120   -3.5215   -3.0603 C   0  0  0  0  0  0  0  0  0  0  0  0
   18.8308   -2.6274   -3.4710 C   0  0  0  0  0  0  0  0  0  0  0  0
   19.2513   -1.6822   -4.4953 C   0  0  0  0  0  0  0  0  0  0  0  0
   18.3968   -1.2948   -5.4246 C   0  0  0  0  0  0  0  0  0  0  0  0
   18.7827   -0.4175   -6.3772 F   0  0  0  0  0  0  0  0  0  0  0  0
   17.0438   -1.7992   -5.4377 C   0  0  0  0  0  0  0  0  0  0  0  0
   15.9955   -1.0782   -5.0754 C   0  0  0  0  0  0  0  0  0  0  0  0
   14.3382   -1.6879   -5.0889 S   0  0  0  0  0  0  0  0  0  0  0  0
   13.1700   -0.3767   -4.8126 N   0  0  0  0  0  0  0  0  0  0  0  0
  1  2  1  0
  2  3  2  3
  3  4  1  0
  4  5  2  3
  5  6  1  0
  6  7  1  1
  6  8  1  0
  8  9  1  0
  9 10  1  1
  9 11  1  0
 11 12  1  0
 12 13  2  0
 12 14  1  0
  3 15  1  0
 15 16  1  0
 16 17  2  3
 17 18  1  0
 18 19  2  3
 19 20  1  0
 19 21  1  0
 21 22  2  3
 22 23  1  0
 23 24  1  0
M  CHG  1  14  -1
M  END
>  <docking_score>  (3) 
-3.8210000000000002

$$$$
