
     RDKit          3D

 20 20  0  0  0  0  0  0  0  0999 V2000
   15.0458   -6.6611   -4.8855 C   0  0  0  0  0  0  0  0  0  0  0  0
   16.2798   -5.7713   -4.9259 C   0  0  1  0  0  0  0  0  0  0  0  0
   17.4786   -6.6448   -4.5909 C   0  0  0  0  0  0  0  0  0  0  0  0
   17.4058   -7.8169   -5.5176 C   0  0  2  0  0  0  0  0  0  0  0  0
   18.4053   -8.7254   -5.1664 O   0  0  0  0  0  0  0  0  0  0  0  0
   17.4385   -7.4484   -6.9626 C   0  0  2  0  0  0  0  0  0  0  0  0
   18.7153   -7.7540   -7.4362 O   0  0  0  0  0  0  0  0  0  0  0  0
   17.0136   -6.0925   -7.3158 C   0  0  1  0  0  0  0  0  0  0  0  0
   16.2375   -6.1322   -8.4744 O   0  0  0  0  0  0  0  0  0  0  0  0
   16.4851   -5.2099   -6.2802 C   0  0  1  0  0  0  0  0  0  0  0  0
   15.3935   -4.3527   -6.6263 N   0  0  0  0  0  0  0  0  0  0  0  0
   15.7526   -2.9941   -6.8283 C   0  0  0  0  0  3  0  0  0  0  0  0
   15.6480   -2.1057   -5.6571 C   0  0  1  0  0  0  0  0  0  0  0  0
   14.3437   -2.1207   -4.9575 C   0  0  0  0  0  0  0  0  0  0  0  0
   16.8511   -1.8945   -4.8351 C   0  0  0  0  0  3  0  0  0  0  0  0
   18.1532   -1.9635   -5.5505 C   0  0  0  0  0  0  0  0  0  0  0  0
   16.8229   -2.4941   -3.5998 O   0  0  0  0  0  0  0  0  0  0  0  0
   18.1222   -2.7779   -3.1242 C   0  0  1  0  0  0  0  0  0  0  0  0
   18.6178   -1.4232   -2.0308 S   0  0  0  0  0  0  0  0  0  0  0  0
   18.1361   -3.9552   -2.3755 F   0  0  0  0  0  0  0  0  0  0  0  0
  2  1  1  6
  2  3  1  0
  3  4  1  0
  4  5  1  1
  4  6  1  0
  6  7  1  1
  6  8  1  0
  8  9  1  6
  8 10  1  0
 10 11  1  6
 11 12  1  0
 12 13  1  0
 13 14  1  1
 13 15  1  0
 15 16  1  0
 15 17  1  0
 17 18  1  0
 18 19  1  0
 18 20  1  1
 10  2  1  0
M  RAD  2  12   2  15   2
M  END
>  <docking_score>  (1) 
-3.7650000000000001

$$$$

     RDKit          3D

 20 20  0  0  0  0  0  0  0  0999 V2000
   18.4995   -6.6136   -3.2910 C   0  0  0  0  0  0  0  0  0  0  0  0
   17.6087   -5.3986   -3.5064 C   0  0  1  0  0  0  0  0  0  0  0  0
   17.8343   -4.4583   -2.3328 C   0  0  0  0  0  0  0  0  0  0  0  0
   19.3142   -4.2589   -2.2437 C   0  0  2  0  0  0  0  0  0  0  0  0
   19.5951   -3.5118   -1.0988 O   0  0  0  0  0  0  0  0  0  0  0  0
   19.9220   -3.6808   -3.4771 C   0  0  2  0  0  0  0  0  0  0  0  0
   20.2008   -2.3399   -3.2086 O   0  0  0  0  0  0  0  0  0  0  0  0
   19.1908   -3.8663   -4.7319 C   0  0  1  0  0  0  0  0  0  0  0  0
   20.0883   -4.1686   -5.7563 O   0  0  0  0  0  0  0  0  0  0  0  0
   17.9800   -4.6816   -4.7471 C   0  0  1  0  0  0  0  0  0  0  0  0
   17.7529   -5.5192   -5.8842 N   0  0  0  0  0  0  0  0  0  0  0  0
   16.3986   -5.9009   -6.0735 C   0  0  0  0  0  3  0  0  0  0  0  0
   15.4806   -4.8512   -6.5503 C   0  0  1  0  0  0  0  0  0  0  0  0
   15.1622   -4.8882   -7.9954 C   0  0  0  0  0  0  0  0  0  0  0  0
   14.4217   -4.3871   -5.6387 C   0  0  0  0  0  3  0  0  0  0  0  0
   13.1332   -5.1272   -5.7014 C   0  0  0  0  0  0  0  0  0  0  0  0
   14.3146   -3.0230   -5.5198 O   0  0  0  0  0  0  0  0  0  0  0  0
   15.4371   -2.4629   -4.8709 C   0  0  1  0  0  0  0  0  0  0  0  0
   15.8002   -0.8778   -5.6657 S   0  0  0  0  0  0  0  0  0  0  0  0
   15.1650   -2.2114   -3.5258 F   0  0  0  0  0  0  0  0  0  0  0  0
  2  1  1  1
  2  3  1  0
  3  4  1  0
  4  5  1  1
  4  6  1  0
  6  7  1  1
  6  8  1  0
  8  9  1  6
  8 10  1  0
 10 11  1  6
 11 12  1  0
 12 13  1  0
 13 14  1  6
 13 15  1  0
 15 16  1  0
 15 17  1  0
 17 18  1  0
 18 19  1  0
 18 20  1  1
 10  2  1  0
M  RAD  2  12   2  15   2
M  END
>  <docking_score>  (2) 
-3.7149999999999999

$$$$

     RDKit          3D

 20 20  0  0  0  0  0  0  0  0999 V2000
   19.8519   -5.4900   -6.5425 C   0  0  0  0  0  0  0  0  0  0  0  0
   18.3600   -5.5488   -6.2478 C   0  0  1  0  0  0  0  0  0  0  0  0
   17.7075   -6.3383   -7.3719 C   0  0  0  0  0  0  0  0  0  0  0  0
   18.4724   -7.6200   -7.4725 C   0  0  2  0  0  0  0  0  0  0  0  0
   18.0064   -8.3313   -8.5792 O   0  0  0  0  0  0  0  0  0  0  0  0
   18.4659   -8.4283   -6.2189 C   0  0  2  0  0  0  0  0  0  0  0  0
   17.5816   -9.4895   -6.4182 O   0  0  0  0  0  0  0  0  0  0  0  0
   18.2186   -7.7138   -4.9650 C   0  0  1  0  0  0  0  0  0  0  0  0
   19.0682   -8.2029   -3.9723 O   0  0  0  0  0  0  0  0  0  0  0  0
   18.0979   -6.2591   -4.9758 C   0  0  1  0  0  0  0  0  0  0  0  0
   18.6675   -5.5334   -3.8825 N   0  0  0  0  0  0  0  0  0  0  0  0
   17.8023   -5.3712   -2.7687 C   0  0  0  0  0  3  0  0  0  0  0  0
   17.7408   -4.0237   -2.1753 C   0  0  1  0  0  0  0  0  0  0  0  0
   19.0108   -3.5153   -1.6100 C   0  0  0  0  0  0  0  0  0  0  0  0
   16.8307   -3.0378   -2.7818 C   0  0  0  0  0  3  0  0  0  0  0  0
   16.5748   -1.8073   -1.9866 C   0  0  0  0  0  0  0  0  0  0  0  0
   15.7346   -3.5715   -3.4142 O   0  0  0  0  0  0  0  0  0  0  0  0
   15.2973   -2.7581   -4.4828 C   0  0  1  0  0  0  0  0  0  0  0  0
   16.7462   -2.3300   -5.4796 S   0  0  0  0  0  0  0  0  0  0  0  0
   14.4045   -3.4468   -5.3045 F   0  0  0  0  0  0  0  0  0  0  0  0
  2  1  1  6
  2  3  1  0
  3  4  1  0
  4  5  1  6
  4  6  1  0
  6  7  1  6
  6  8  1  0
  8  9  1  1
  8 10  1  0
 10 11  1  1
 11 12  1  0
 12 13  1  0
 13 14  1  6
 13 15  1  0
 15 16  1  0
 15 17  1  0
 17 18  1  0
 18 19  1  0
 18 20  1  6
 10  2  1  0
M  RAD  2  12   2  15   2
M  END
>  <docking_score>  (3) 
-3.5

$$$$
